data_C189H126N36_2018-02-15_10:42:31
#******************************************
#
# CIF file created by Zeo++
# Zeo++ is an open source package to
# analyze microporous materials
#
#*******************************************

_cell_length_a		29.4122   
_cell_length_b		29.4123   
_cell_length_c		29.958   
_cell_angle_alpha		90   
_cell_angle_beta		90   
_cell_angle_gamma		120   

_symmetry_space_group_name_H-M		'P1'
_symmetry_Int_Tables_number		1
_symmetry_cell_setting		Monoclinic

loop_
_symmetry_equiv_pos_as_xyz
'+x,+y,+z'

loop_
_atom_site_label
_atom_site_type_symbol
_atom_site_fract_x
_atom_site_fract_y
_atom_site_fract_z
1	C	0.362417	0.721324	0.998581
2	N	0.387156	0.692728	0.998637
3	C	0.360313	0.639339	0.998584
4	N	0.306978	0.614598	0.998624
5	C	0.280433	0.641444	0.998567
6	N	0.309027	0.694777	0.998624
7	C	0.387073	0.610354	0.999141
8	C	0.437336	0.631389	0.018837
9	C	0.463416	0.60229	0.020279
10	C	0.440927	0.551721	0.000886
11	C	0.391041	0.531051	0.980522
12	C	0.36423	0.559494	0.980298
13	C	0.3914	0.777068	0.999135
14	C	0.442267	0.805084	0.980305
15	C	0.470703	0.860341	0.980512
16	C	0.450032	0.889554	0.000878
17	C	0.399458	0.861471	0.020267
18	C	0.37036	0.806297	0.018821
19	C	0.224685	0.614677	0.999111
20	C	0.196672	0.637522	0.980262
21	C	0.141416	0.610715	0.980492
22	C	0.112198	0.560829	0.000853
23	C	0.140278	0.538337	0.020245
24	C	0.195455	0.564401	0.018781
25	H	0.507311	0.878977	0.966436
26	H	0.458805	0.785544	0.965331
27	H	0.382699	0.880952	0.034968
28	H	0.333955	0.787664	0.033285
29	H	0.216216	0.67362	0.965324
30	H	0.122779	0.628688	0.966412
31	H	0.21408	0.546641	0.033277
32	H	0.120795	0.502097	0.034943
33	H	0.328154	0.542958	0.965321
34	H	0.373084	0.494453	0.966422
35	H	0.49965	0.619046	0.034989
36	H	0.455106	0.66779	0.033308
37	C	0.641826	0.279835	0.998407
38	N	0.61519	0.306604	0.998464
39	C	0.639413	0.359925	0.99841
40	N	0.69282	0.386563	0.998457
41	C	0.721915	0.362338	0.998404
42	N	0.695147	0.308931	0.998454
43	C	0.610161	0.386707	0.998944
44	C	0.55449	0.358819	0.998934
45	C	0.525702	0.385257	3.9e-05
46	C	0.551594	0.440649	0.001538
47	C	0.60705	0.468774	0.000911
48	C	0.63575	0.44229	0.999722
49	C	0.615044	0.223803	0.998934
50	C	0.55946	0.193807	0.999719
51	C	0.532976	0.138622	0.000901
52	C	0.5611	0.111291	0.00153
53	C	0.616493	0.140792	2.6e-05
54	C	0.64293	0.196019	0.998924
55	C	0.777949	0.39159	0.998918
56	C	0.807945	0.366004	0.999689
57	C	0.863133	0.394708	0.000869
58	C	0.890459	0.450161	0.001499
59	C	0.860956	0.476053	0.999979
60	C	0.80573	0.44726	0.998911
61	H	0.492792	0.118515	0.00101
62	H	0.537309	0.211743	0.999515
63	H	0.638137	0.122289	0.000613
64	H	0.683087	0.215663	0.998367
65	H	0.790012	0.325916	0.999488
66	H	0.883239	0.374632	0.000979
67	H	0.786085	0.467769	0.998367
68	H	0.879459	0.516199	0.00061
69	H	0.675839	0.464444	0.999522
70	H	0.627126	0.50896	0.001014
71	H	0.485556	0.363616	0.00062
72	H	0.533981	0.318666	0.998377
73	C	0.529762	0.504358	0.037267
74	C	0.52266	0.467553	0.003394
75	C	0.485268	0.458983	0.303299
76	N	0.459438	0.486374	0.30343
77	C	0.467753	0.522775	0.001822
78	N	0.502796	0.530639	0.034688
79	H	0.478019	0.433107	0.277808
80	C	0.564845	0.51616	0.076266
81	C	0.541478	0.512159	0.123108
82	C	0.555446	0.470969	0.107897
83	H	0.605744	0.547214	0.072963
84	H	0.590369	0.473858	0.123423
85	H	0.521755	0.432228	0.101088
86	H	0.499412	0.4979	0.125531
87	H	0.567864	0.539778	0.148082
88	C	0.497392	0.025751	0.037259
89	C	0.534197	0.055453	0.003386
90	C	0.54277	0.026633	0.303292
91	N	0.51538	0.973411	0.303423
92	C	0.47898	0.945329	0.001815
93	N	0.471114	0.972504	0.03468
94	H	0.568644	0.045258	0.277802
95	C	0.48559	0.049032	0.076258
96	C	0.489591	0.029665	0.1231
97	C	0.530781	0.084825	0.107888
98	H	0.454537	0.058876	0.072955
99	H	0.527891	0.116858	0.123414
100	H	0.569519	0.089875	0.101079
101	H	0.50385	0.00186	0.125522
102	H	0.461972	0.028432	0.148073
103	C	0.975999	0.471997	0.037233
104	C	0.946299	0.479099	0.003359
105	C	0.97512	0.516497	0.303267
106	N	0.028342	0.542326	0.3034
107	C	0.056425	0.534007	0.001792
108	N	0.029246	0.498964	0.034656
109	H	0.956497	0.523745	0.277776
110	C	0.952717	0.436911	0.07623
111	C	0.972078	0.460278	0.123073
112	C	0.916916	0.446302	0.107858
113	H	0.942877	0.396015	0.072928
114	H	0.884886	0.411381	0.123383
115	H	0.911864	0.47999	0.101049
116	H	0.99988	0.502344	0.125497
117	H	0.973313	0.433896	0.148047
118	C	0.362417	0.721324	0.331914
119	N	0.387156	0.692728	0.331969
120	C	0.360313	0.639339	0.331917
121	N	0.306978	0.614598	0.331958
122	C	0.280433	0.641444	0.331901
123	N	0.309027	0.694777	0.331955
124	C	0.387073	0.610354	0.332473
125	C	0.437336	0.631389	0.352169
126	C	0.463416	0.60229	0.353611
127	C	0.440927	0.551721	0.334221
128	C	0.391041	0.531051	0.313856
129	C	0.36423	0.559494	0.313631
130	C	0.3914	0.777068	0.332467
131	C	0.442267	0.805084	0.313638
132	C	0.470703	0.860341	0.313845
133	C	0.450032	0.889554	0.334211
134	C	0.399458	0.861471	0.353601
135	C	0.37036	0.806297	0.352156
136	C	0.224685	0.614677	0.332444
137	C	0.196672	0.637522	0.313594
138	C	0.141416	0.610715	0.313824
139	C	0.112198	0.560829	0.334188
140	C	0.140278	0.538337	0.353578
141	C	0.195455	0.564401	0.352116
142	H	0.507311	0.878977	0.299768
143	H	0.458805	0.785544	0.298665
144	H	0.382699	0.880952	0.368302
145	H	0.333955	0.787664	0.36662
146	H	0.216216	0.67362	0.298658
147	H	0.122779	0.628688	0.299746
148	H	0.21408	0.546641	0.36661
149	H	0.120795	0.502097	0.368275
150	H	0.328154	0.542958	0.298653
151	H	0.373084	0.494453	0.299755
152	H	0.49965	0.619046	0.368322
153	H	0.455106	0.66779	0.366643
154	C	0.641826	0.279835	0.331738
155	N	0.61519	0.306604	0.331796
156	C	0.639413	0.359925	0.331744
157	N	0.69282	0.386563	0.33179
158	C	0.721915	0.362338	0.331735
159	N	0.695147	0.308931	0.331785
160	C	0.610161	0.386707	0.332276
161	C	0.55449	0.358819	0.332267
162	C	0.525702	0.385257	0.333371
163	C	0.551594	0.440649	0.334872
164	C	0.60705	0.468774	0.334244
165	C	0.63575	0.44229	0.333056
166	C	0.615044	0.223803	0.332268
167	C	0.55946	0.193807	0.333051
168	C	0.532976	0.138622	0.334234
169	C	0.5611	0.111291	0.334862
170	C	0.616493	0.140792	0.333359
171	C	0.64293	0.196019	0.332258
172	C	0.777949	0.39159	0.332251
173	C	0.807945	0.366004	0.333022
174	C	0.863133	0.394708	0.334201
175	C	0.890459	0.450161	0.334832
176	C	0.860956	0.476053	0.333312
177	C	0.80573	0.44726	0.332244
178	H	0.492792	0.118515	0.334344
179	H	0.537309	0.211743	0.332849
180	H	0.638137	0.122289	0.333947
181	H	0.683087	0.215663	0.331701
182	H	0.790012	0.325916	0.332822
183	H	0.883239	0.374632	0.334314
184	H	0.786085	0.467769	0.331701
185	H	0.879459	0.516199	0.333941
186	H	0.675839	0.464444	0.332854
187	H	0.627126	0.50896	0.334348
188	H	0.485556	0.363616	0.333954
189	H	0.533981	0.318666	0.331709
190	C	0.529762	0.504358	0.370602
191	C	0.52266	0.467553	0.336728
192	C	0.485268	0.458983	0.636634
193	N	0.459438	0.486374	0.636764
194	C	0.467753	0.522775	0.335156
195	N	0.502796	0.530639	0.368022
196	H	0.478019	0.433107	0.611142
197	C	0.564845	0.51616	0.4096
198	C	0.541478	0.512159	0.456442
199	C	0.555446	0.470969	0.441231
200	H	0.605744	0.547214	0.406298
201	H	0.590369	0.473858	0.456756
202	H	0.521755	0.432228	0.434421
203	H	0.499412	0.4979	0.458865
204	H	0.567864	0.539778	0.481414
205	C	0.497392	0.025751	0.370592
206	C	0.534197	0.055453	0.336721
207	C	0.54277	0.026633	0.636627
208	N	0.51538	0.973411	0.636758
209	C	0.47898	0.945329	0.335149
210	N	0.471114	0.972504	0.368015
211	H	0.568644	0.045258	0.611135
212	C	0.48559	0.049032	0.409593
213	C	0.489591	0.029665	0.456432
214	C	0.530781	0.084825	0.441221
215	H	0.454537	0.058876	0.406288
216	H	0.527891	0.116858	0.456749
217	H	0.569519	0.089875	0.434414
218	H	0.50385	0.00186	0.458855
219	H	0.461972	0.028432	0.481407
220	C	0.975999	0.471997	0.370565
221	C	0.946299	0.479099	0.336691
222	C	0.97512	0.516497	0.636601
223	N	0.028342	0.542326	0.636734
224	C	0.056425	0.534007	0.335126
225	N	0.029246	0.498964	0.367988
226	H	0.956497	0.523745	0.611108
227	C	0.952717	0.436911	0.409563
228	C	0.972078	0.460278	0.456405
229	C	0.916916	0.446302	0.441191
230	H	0.942877	0.396015	0.406262
231	H	0.884886	0.411381	0.456716
232	H	0.911864	0.47999	0.434381
233	H	0.99988	0.502344	0.458829
234	H	0.973313	0.433896	0.48138
235	C	0.362417	0.721324	0.665247
236	N	0.387156	0.692728	0.665304
237	C	0.360313	0.639339	0.665251
238	N	0.306978	0.614598	0.665291
239	C	0.280433	0.641444	0.665234
240	N	0.309027	0.694777	0.665288
241	C	0.387073	0.610354	0.665805
242	C	0.437336	0.631389	0.685506
243	C	0.463416	0.60229	0.686948
244	C	0.440927	0.551721	0.667554
245	C	0.391041	0.531051	0.647189
246	C	0.36423	0.559494	0.646965
247	C	0.3914	0.777068	0.665802
248	C	0.442267	0.805084	0.646972
249	C	0.470703	0.860341	0.647179
250	C	0.450032	0.889554	0.667544
251	C	0.399458	0.861471	0.686934
252	C	0.37036	0.806297	0.685489
253	C	0.224685	0.614677	0.665778
254	C	0.196672	0.637522	0.646928
255	C	0.141416	0.610715	0.647159
256	C	0.112198	0.560829	0.667521
257	C	0.140278	0.538337	0.686911
258	C	0.195455	0.564401	0.685449
259	H	0.507311	0.878977	0.633102
260	H	0.458805	0.785544	0.631998
261	H	0.382699	0.880952	0.701635
262	H	0.333955	0.787664	0.699953
263	H	0.216216	0.67362	0.631991
264	H	0.122779	0.628688	0.633079
265	H	0.21408	0.546641	0.699946
266	H	0.120795	0.502097	0.701612
267	H	0.328154	0.542958	0.631988
268	H	0.373084	0.494453	0.633089
269	H	0.49965	0.619046	0.701655
270	H	0.455106	0.66779	0.699976
271	C	0.641826	0.279835	0.665074
272	N	0.61519	0.306604	0.665131
273	C	0.639413	0.359925	0.665077
274	N	0.69282	0.386563	0.665124
275	C	0.721915	0.362338	0.665071
276	N	0.695147	0.308931	0.665121
277	C	0.610161	0.386707	0.665608
278	C	0.55449	0.358819	0.665601
279	C	0.525702	0.385257	0.666703
280	C	0.551594	0.440649	0.668205
281	C	0.60705	0.468774	0.667577
282	C	0.63575	0.44229	0.666389
283	C	0.615044	0.223803	0.665601
284	C	0.55946	0.193807	0.666386
285	C	0.532976	0.138622	0.667567
286	C	0.5611	0.111291	0.668198
287	C	0.616493	0.140792	0.666693
288	C	0.64293	0.196019	0.665591
289	C	0.777949	0.39159	0.665585
290	C	0.807945	0.366004	0.666356
291	C	0.863133	0.394708	0.667537
292	C	0.890459	0.450161	0.668165
293	C	0.860956	0.476053	0.666646
294	C	0.80573	0.44726	0.665578
295	H	0.492792	0.118515	0.667678
296	H	0.537309	0.211743	0.666182
297	H	0.638137	0.122289	0.66728
298	H	0.683087	0.215663	0.665034
299	H	0.790012	0.325916	0.666155
300	H	0.883239	0.374632	0.667647
301	H	0.786085	0.467769	0.665034
302	H	0.879459	0.516199	0.667274
303	H	0.675839	0.464444	0.666189
304	H	0.627126	0.50896	0.667681
305	H	0.485556	0.363616	0.667287
306	H	0.533981	0.318666	0.665044
307	C	0.529762	0.504358	0.703935
308	C	0.52266	0.467553	0.670061
309	C	0.485268	0.458983	0.969967
310	N	0.459438	0.486374	0.970097
311	C	0.467753	0.522775	0.668489
312	N	0.502796	0.530639	0.701355
313	H	0.478019	0.433107	0.944475
314	C	0.564845	0.51616	0.742933
315	C	0.541478	0.512159	0.789775
316	C	0.555446	0.470969	0.774564
317	H	0.605744	0.547214	0.739632
318	H	0.590369	0.473858	0.790089
319	H	0.521755	0.432228	0.767754
320	H	0.499412	0.4979	0.792198
321	H	0.567864	0.539778	0.81475
322	C	0.497392	0.025751	0.703925
323	C	0.534197	0.055453	0.670054
324	C	0.54277	0.026633	0.96996
325	N	0.51538	0.973411	0.970091
326	C	0.47898	0.945329	0.668482
327	N	0.471114	0.972504	0.701348
328	H	0.568644	0.045258	0.944468
329	C	0.48559	0.049032	0.742926
330	C	0.489591	0.029665	0.789768
331	C	0.530781	0.084825	0.774554
332	H	0.454537	0.058876	0.739622
333	H	0.527891	0.116858	0.790082
334	H	0.569519	0.089875	0.767748
335	H	0.50385	0.00186	0.792188
336	H	0.461972	0.028432	0.81474
337	C	0.975999	0.471997	0.703902
338	C	0.946299	0.479099	0.670027
339	C	0.97512	0.516497	0.969934
340	N	0.028342	0.542326	0.970067
341	C	0.056425	0.534007	0.668459
342	N	0.029246	0.498964	0.701325
343	H	0.956497	0.523745	0.944441
344	C	0.952717	0.436911	0.742896
345	C	0.972078	0.460278	0.789738
346	C	0.916916	0.446302	0.774524
347	H	0.942877	0.396015	0.739595
348	H	0.884886	0.411381	0.790049
349	H	0.911864	0.47999	0.767717
350	H	0.99988	0.502344	0.792165
351	H	0.973313	0.433896	0.814713
