data_C198H144N18_2018-02-15_10:42:31
#******************************************
#
# CIF file created by Zeo++
# Zeo++ is an open source package to
# analyze microporous materials
#
#*******************************************

_cell_length_a		29.4997   
_cell_length_b		29.4998   
_cell_length_c		29.9126   
_cell_angle_alpha		90   
_cell_angle_beta		90   
_cell_angle_gamma		120   

_symmetry_space_group_name_H-M		'P1'
_symmetry_Int_Tables_number		1
_symmetry_cell_setting		Monoclinic

loop_
_symmetry_equiv_pos_as_xyz
'+x,+y,+z'

loop_
_atom_site_label
_atom_site_type_symbol
_atom_site_fract_x
_atom_site_fract_y
_atom_site_fract_z
1	C	0.031223	0.50325	0.03941
2	C	0.028417	0.526873	0.294803
3	H	0.036619	0.520457	0.224945
4	C	0.031223	0.50325	0.372743
5	C	0.028417	0.526873	0.628134
6	H	0.036619	0.520457	0.558277
7	C	0.031223	0.50325	0.706075
8	C	0.028417	0.526873	0.961469
9	H	0.036619	0.520457	0.891612
10	H	0.041841	0.58044	0.242253
11	H	0.041841	0.58044	0.575584
12	H	0.041841	0.58044	0.908919
13	C	0.362504	0.722203	0.002926
14	N	0.387919	0.694384	0.002889
15	C	0.362627	0.641154	0.002923
16	N	0.309393	0.615738	0.002891
17	C	0.281454	0.641029	0.002929
18	N	0.309273	0.694263	0.002893
19	C	0.390647	0.613265	0.002559
20	C	0.446155	0.640007	0.003064
21	C	0.473844	0.612611	0.002338
22	C	0.446846	0.557408	0.0007
23	C	0.391599	0.530247	0.00063
24	C	0.364041	0.557772	0.001495
25	C	0.390391	0.77811	0.002562
26	C	0.445884	0.806998	0.001498
27	C	0.473408	0.862079	0.000633
28	C	0.446247	0.890164	0.0007
29	C	0.391046	0.861962	0.002341
30	C	0.363649	0.806876	0.003067
31	C	0.225546	0.61301	0.002565
32	C	0.196659	0.639616	0.0015
33	C	0.141577	0.612059	0.000637
34	C	0.113491	0.556813	0.000704
35	C	0.141692	0.529812	0.00235
36	C	0.19678	0.557502	0.003072
37	H	0.513473	0.881557	0.999848
38	H	0.46719	0.788291	0.001178
39	H	0.370346	0.881334	0.002505
40	H	0.323641	0.788072	0.003905
41	H	0.215369	0.679631	0.001185
42	H	0.122101	0.632648	0.999855
43	H	0.215582	0.536298	0.003906
44	H	0.12232	0.489742	0.002504
45	H	0.324028	0.536467	0.001175
46	H	0.371013	0.490184	0.999851
47	H	0.513916	0.63331	0.002504
48	H	0.46736	0.680015	0.003902
49	C	0.641831	0.280723	0.000717
50	N	0.616471	0.308593	0.000754
51	C	0.641819	0.361825	0.000717
52	N	0.695049	0.387185	0.000757
53	C	0.722932	0.361838	0.00072
54	N	0.695062	0.308607	0.000754
55	C	0.613855	0.389767	0.001112
56	C	0.55835	0.363077	0.000547
57	C	0.530713	0.390524	0.001312
58	C	0.557758	0.445722	0.003054
59	C	0.613004	0.472832	0.003174
60	C	0.640513	0.44526	0.002273
61	C	0.613888	0.224817	0.001108
62	C	0.558397	0.195984	0.002274
63	C	0.530822	0.140902	0.003175
64	C	0.557934	0.112765	0.003054
65	C	0.613133	0.140918	0.001312
66	C	0.64058	0.196002	0.000547
67	C	0.778839	0.389801	0.001108
68	C	0.807673	0.363143	0.00227
69	C	0.862756	0.39065	0.00317
70	C	0.89089	0.445894	0.003044
71	C	0.862739	0.472942	0.001292
72	C	0.807657	0.445307	0.000543
73	H	0.490759	0.121462	0.004018
74	H	0.53713	0.214731	0.002631
75	H	0.633795	0.12151	0.001098
76	H	0.680582	0.214765	0.999634
77	H	0.788924	0.323128	0.002632
78	H	0.882194	0.370027	0.004018
79	H	0.788893	0.466546	0.999637
80	H	0.882146	0.513016	0.001102
81	H	0.680526	0.466526	0.002635
82	H	0.633628	0.512895	0.00402
83	H	0.490641	0.369861	0.001098
84	H	0.537111	0.323074	0.999634
85	C	0.529918	0.473486	0.003926
86	C	0.527868	0.500909	0.042284
87	C	0.500406	0.528705	0.03941
88	C	0.474725	0.529683	0.333165
89	C	0.476789	0.502275	0.294804
90	H	0.498364	0.548029	0.067175
91	C	0.504233	0.474465	0.297682
92	H	0.506297	0.455163	0.269909
93	C	0.453037	0.502095	0.250815
94	H	0.434757	0.526309	0.25021
95	H	0.423222	0.462131	0.242254
96	H	0.483204	0.516887	0.224945
97	C	0.551629	0.501097	0.08627
98	H	0.569911	0.476884	0.086874
99	H	0.521466	0.486305	0.112144
100	H	0.581443	0.541062	0.094826
101	C	0.530169	0.057161	0.003926
102	C	0.502747	0.027688	0.042284
103	C	0.474952	0.97243	0.03941
104	C	0.473974	0.94577	0.333165
105	C	0.501382	0.975241	0.294804
106	H	0.455627	0.951062	0.067175
107	C	0.52919	0.030499	0.297682
108	H	0.548493	0.051863	0.269909
109	C	0.501562	0.951669	0.250815
110	H	0.477347	0.909176	0.25021
111	H	0.541526	0.961819	0.242254
112	H	0.48677	0.967044	0.224945
113	C	0.502558	0.051262	0.08627
114	H	0.526772	0.093757	0.086874
115	H	0.51735	0.03589	0.112144
116	H	0.462593	0.04111	0.094826
117	C	0.946497	0.473737	0.00392
118	C	0.975967	0.475788	0.04228
119	C	0.057886	0.528936	0.333167
120	H	0.052588	0.505293	0.067176
121	C	0.973162	0.499426	0.297678
122	H	0.951799	0.497359	0.269903
123	C	0.051991	0.550625	0.250815
124	H	0.094488	0.568908	0.250213
125	C	0.95239	0.452024	0.086264
126	H	0.909894	0.433744	0.086867
127	H	0.96776	0.482187	0.112139
128	H	0.96254	0.422209	0.094821
129	C	0.362504	0.722203	0.33626
130	N	0.387919	0.694384	0.33622
131	C	0.362627	0.641154	0.336257
132	N	0.309393	0.615738	0.336223
133	C	0.281454	0.641029	0.33626
134	N	0.309273	0.694263	0.336227
135	C	0.390647	0.613265	0.335892
136	C	0.446155	0.640007	0.336397
137	C	0.473844	0.612611	0.335672
138	C	0.446846	0.557408	0.334035
139	C	0.391599	0.530247	0.333965
140	C	0.364041	0.557772	0.334829
141	C	0.390391	0.77811	0.335896
142	C	0.445884	0.806998	0.334829
143	C	0.473408	0.862079	0.333967
144	C	0.446247	0.890164	0.334035
145	C	0.391046	0.861962	0.335675
146	C	0.363649	0.806876	0.336401
147	C	0.225546	0.61301	0.335899
148	C	0.196659	0.639616	0.334833
149	C	0.141577	0.612059	0.333973
150	C	0.113491	0.556813	0.334038
151	C	0.141692	0.529812	0.335682
152	C	0.19678	0.557502	0.336404
153	H	0.513473	0.881557	0.333183
154	H	0.46719	0.788291	0.334512
155	H	0.370346	0.881334	0.335839
156	H	0.323641	0.788072	0.33724
157	H	0.215369	0.679631	0.334522
158	H	0.122101	0.632648	0.33319
159	H	0.215582	0.536298	0.33724
160	H	0.12232	0.489742	0.335836
161	H	0.324028	0.536467	0.334512
162	H	0.371013	0.490184	0.333185
163	H	0.513916	0.63331	0.335836
164	H	0.46736	0.680015	0.337233
165	C	0.641831	0.280723	0.33405
166	N	0.616471	0.308593	0.334089
167	C	0.641819	0.361825	0.334053
168	N	0.695049	0.387185	0.33409
169	C	0.722932	0.361838	0.334053
170	N	0.695062	0.308607	0.334089
171	C	0.613855	0.389767	0.334445
172	C	0.55835	0.363077	0.33388
173	C	0.530713	0.390524	0.334649
174	C	0.557758	0.445722	0.336387
175	C	0.613004	0.472832	0.336508
176	C	0.640513	0.44526	0.335605
177	C	0.613888	0.224817	0.334445
178	C	0.558397	0.195984	0.335608
179	C	0.530822	0.140902	0.336508
180	C	0.557934	0.112765	0.336387
181	C	0.613133	0.140918	0.334649
182	C	0.64058	0.196002	0.33388
183	C	0.778839	0.389801	0.334442
184	C	0.807673	0.363143	0.335602
185	C	0.862756	0.39065	0.336504
186	C	0.89089	0.445894	0.336377
187	C	0.862739	0.472942	0.334625
188	C	0.807657	0.445307	0.333876
189	H	0.490759	0.121462	0.33735
190	H	0.53713	0.214731	0.335963
191	H	0.633795	0.12151	0.334435
192	H	0.680582	0.214765	0.332967
193	H	0.788924	0.323128	0.335966
194	H	0.882194	0.370027	0.33735
195	H	0.788893	0.466546	0.33297
196	H	0.882146	0.513016	0.334435
197	H	0.680526	0.466526	0.335966
198	H	0.633628	0.512895	0.337353
199	H	0.490641	0.369861	0.334432
200	H	0.537111	0.323074	0.332967
201	C	0.529918	0.473486	0.33726
202	C	0.527868	0.500909	0.375615
203	C	0.500406	0.528705	0.372743
204	C	0.474725	0.529683	0.666496
205	C	0.476789	0.502275	0.628138
206	H	0.498364	0.548029	0.400507
207	C	0.504233	0.474465	0.631016
208	H	0.506297	0.455163	0.603242
209	C	0.453037	0.502095	0.584146
210	H	0.434757	0.526309	0.583544
211	H	0.423222	0.462131	0.575588
212	H	0.483204	0.516887	0.558277
213	C	0.551629	0.501097	0.419603
214	H	0.569911	0.476884	0.420208
215	H	0.521466	0.486305	0.445475
216	H	0.581443	0.541062	0.428158
217	C	0.530169	0.057161	0.33726
218	C	0.502747	0.027688	0.375615
219	C	0.474952	0.97243	0.372743
220	C	0.473974	0.94577	0.666496
221	C	0.501382	0.975241	0.628138
222	H	0.455627	0.951062	0.400507
223	C	0.52919	0.030499	0.631016
224	H	0.548493	0.051863	0.603242
225	C	0.501562	0.951669	0.584146
226	H	0.477347	0.909176	0.583544
227	H	0.541526	0.961819	0.575588
228	H	0.48677	0.967044	0.558277
229	C	0.502558	0.051262	0.419603
230	H	0.526772	0.093757	0.420208
231	H	0.51735	0.03589	0.445475
232	H	0.462593	0.04111	0.428158
233	C	0.946497	0.473737	0.337253
234	C	0.975967	0.475788	0.375612
235	C	0.057886	0.528936	0.666499
236	H	0.052588	0.505293	0.400507
237	C	0.973162	0.499426	0.631009
238	H	0.951799	0.497359	0.603235
239	C	0.051991	0.550625	0.584149
240	H	0.094488	0.568908	0.583544
241	C	0.95239	0.452024	0.419596
242	H	0.909894	0.433744	0.420198
243	H	0.96776	0.482187	0.445472
244	H	0.96254	0.422209	0.428155
245	C	0.362504	0.722203	0.669592
246	N	0.387919	0.694384	0.669555
247	C	0.362627	0.641154	0.669588
248	N	0.309393	0.615738	0.669555
249	C	0.281454	0.641029	0.669595
250	N	0.309273	0.694263	0.669558
251	C	0.390647	0.613265	0.669224
252	C	0.446155	0.640007	0.669729
253	C	0.473844	0.612611	0.669003
254	C	0.446846	0.557408	0.667369
255	C	0.391599	0.530247	0.667298
256	C	0.364041	0.557772	0.668161
257	C	0.390391	0.77811	0.669227
258	C	0.445884	0.806998	0.668164
259	C	0.473408	0.862079	0.667298
260	C	0.446247	0.890164	0.667369
261	C	0.391046	0.861962	0.669007
262	C	0.363649	0.806876	0.669732
263	C	0.225546	0.61301	0.669231
264	C	0.196659	0.639616	0.668164
265	C	0.141577	0.612059	0.667305
266	C	0.113491	0.556813	0.667372
267	C	0.141692	0.529812	0.669013
268	C	0.19678	0.557502	0.669739
269	H	0.513473	0.881557	0.666516
270	H	0.46719	0.788291	0.667843
271	H	0.370346	0.881334	0.669171
272	H	0.323641	0.788072	0.670571
273	H	0.215369	0.679631	0.667853
274	H	0.122101	0.632648	0.666523
275	H	0.215582	0.536298	0.670571
276	H	0.12232	0.489742	0.669171
277	H	0.324028	0.536467	0.667843
278	H	0.371013	0.490184	0.666516
279	H	0.513916	0.63331	0.669171
280	H	0.46736	0.680015	0.670568
281	C	0.641831	0.280723	0.667382
282	N	0.616471	0.308593	0.667422
283	C	0.641819	0.361825	0.667385
284	N	0.695049	0.387185	0.667422
285	C	0.722932	0.361838	0.667385
286	N	0.695062	0.308607	0.667422
287	C	0.613855	0.389767	0.667777
288	C	0.55835	0.363077	0.667212
289	C	0.530713	0.390524	0.66798
290	C	0.557758	0.445722	0.669719
291	C	0.613004	0.472832	0.669839
292	C	0.640513	0.44526	0.66894
293	C	0.613888	0.224817	0.667777
294	C	0.558397	0.195984	0.66894
295	C	0.530822	0.140902	0.669839
296	C	0.557934	0.112765	0.669719
297	C	0.613133	0.140918	0.66798
298	C	0.64058	0.196002	0.667212
299	C	0.778839	0.389801	0.667773
300	C	0.807673	0.363143	0.668937
301	C	0.862756	0.39065	0.669836
302	C	0.89089	0.445894	0.669709
303	C	0.862739	0.472942	0.667957
304	C	0.807657	0.445307	0.667208
305	H	0.490759	0.121462	0.670685
306	H	0.53713	0.214731	0.669298
307	H	0.633795	0.12151	0.667767
308	H	0.680582	0.214765	0.666299
309	H	0.788924	0.323128	0.669298
310	H	0.882194	0.370027	0.670685
311	H	0.788893	0.466546	0.666302
312	H	0.882146	0.513016	0.667767
313	H	0.680526	0.466526	0.669301
314	H	0.633628	0.512895	0.670685
315	H	0.490641	0.369861	0.667763
316	H	0.537111	0.323074	0.666299
317	C	0.529918	0.473486	0.670591
318	C	0.527868	0.500909	0.70895
319	C	0.500406	0.528705	0.706075
320	C	0.474725	0.529683	0.999831
321	C	0.476789	0.502275	0.961469
322	H	0.498364	0.548029	0.733842
323	C	0.504233	0.474465	0.964348
324	H	0.506297	0.455163	0.936573
325	C	0.453037	0.502095	0.917481
326	H	0.434757	0.526309	0.916876
327	H	0.423222	0.462131	0.908919
328	H	0.483204	0.516887	0.891612
329	C	0.551629	0.501097	0.752935
330	H	0.569911	0.476884	0.75354
331	H	0.521466	0.486305	0.77881
332	H	0.581443	0.541062	0.76149
333	C	0.530169	0.057161	0.670591
334	C	0.502747	0.027688	0.70895
335	C	0.474952	0.97243	0.706075
336	C	0.473974	0.94577	0.999831
337	C	0.501382	0.975241	0.961469
338	H	0.455627	0.951062	0.733842
339	C	0.52919	0.030499	0.964348
340	H	0.548493	0.051863	0.936573
341	C	0.501562	0.951669	0.917481
342	H	0.477347	0.909176	0.916876
343	H	0.541526	0.961819	0.908919
344	H	0.48677	0.967044	0.891612
345	C	0.502558	0.051262	0.752935
346	H	0.526772	0.093757	0.75354
347	H	0.51735	0.03589	0.77881
348	H	0.462593	0.04111	0.761493
349	C	0.946497	0.473737	0.670585
350	C	0.975967	0.475788	0.708947
351	C	0.057886	0.528936	0.999831
352	H	0.052588	0.505293	0.733842
353	C	0.973162	0.499426	0.964344
354	H	0.951799	0.497359	0.93657
355	C	0.051991	0.550625	0.917481
356	H	0.094488	0.568908	0.916879
357	C	0.95239	0.452024	0.752931
358	H	0.909894	0.433744	0.753533
359	H	0.96776	0.482187	0.778804
360	H	0.96254	0.422209	0.761486
