data_C216H135N15O18_2018-02-15_10:40:47
#******************************************
#
# CIF file created by Zeo++
# Zeo++ is an open source package to
# analyze microporous materials
#
#*******************************************

_cell_length_a		32.4377   
_cell_length_b		32.4376   
_cell_length_c		29.0008   
_cell_angle_alpha		90   
_cell_angle_beta		90   
_cell_angle_gamma		120   

_symmetry_space_group_name_H-M		'P1'
_symmetry_Int_Tables_number		1
_symmetry_cell_setting		Monoclinic

loop_
_symmetry_equiv_pos_as_xyz
'+x,+y,+z'

loop_
_atom_site_label
_atom_site_type_symbol
_atom_site_fract_x
_atom_site_fract_y
_atom_site_fract_z
1	N	0.361586	0.68573	0.017434
2	C	0.310842	0.660794	0.01982
3	C	0.283102	0.631184	0.983208
4	C	0.232973	0.606878	0.985105
5	C	0.208601	0.611648	0.023459
6	C	0.236681	0.64213	0.059677
7	C	0.28687	0.665977	0.058068
8	C	0.381064	0.76257	0.981743
9	H	0.386797	0.651097	0.945865
10	H	0.299316	0.627083	0.954788
11	H	0.214308	0.585145	0.958157
12	H	0.357608	0.744854	0.955623
13	H	0.306005	0.687705	0.084801
14	H	0.220756	0.647772	0.087496
15	C	0.157405	0.586598	0.024932
16	C	0.130872	0.557735	0.062896
17	C	0.080318	0.532354	0.061268
18	C	0.054182	0.535024	0.023285
19	C	0.081448	0.564712	0.319623
20	C	0.131587	0.589424	0.320209
21	H	0.065067	0.569468	0.29168
22	H	0.149251	0.610508	0.292536
23	H	0.062542	0.51054	0.088409
24	N	0.155064	0.55352	0.10169
25	O	0.145359	0.511305	0.108146
26	O	0.145108	0.56835	0.137696
27	N	0.361586	0.68573	0.350767
28	C	0.310842	0.660794	0.353153
29	C	0.283102	0.631184	0.316544
30	C	0.232973	0.606878	0.318439
31	C	0.208601	0.611648	0.356791
32	C	0.236681	0.64213	0.39301
33	C	0.28687	0.665977	0.3914
34	C	0.381064	0.76257	0.315077
35	H	0.386797	0.651097	0.279198
36	H	0.299316	0.627083	0.288121
37	H	0.214308	0.585145	0.291493
38	H	0.357608	0.744854	0.288957
39	H	0.306005	0.687705	0.418134
40	H	0.220756	0.647772	0.42083
41	C	0.157405	0.586598	0.358266
42	C	0.130872	0.557735	0.396227
43	C	0.080318	0.532354	0.3946
44	C	0.054182	0.535024	0.356618
45	C	0.081448	0.564712	0.652955
46	C	0.131587	0.589424	0.653541
47	H	0.065067	0.569468	0.625011
48	H	0.149251	0.610508	0.62587
49	H	0.062542	0.51054	0.421744
50	N	0.155064	0.55352	0.435023
51	O	0.145359	0.511305	0.441478
52	O	0.145108	0.56835	0.471029
53	N	0.361586	0.68573	0.684099
54	C	0.310842	0.660794	0.686485
55	C	0.283102	0.631184	0.649876
56	C	0.232973	0.606878	0.651772
57	C	0.208601	0.611648	0.690126
58	C	0.236681	0.64213	0.726343
59	C	0.28687	0.665977	0.724732
60	C	0.381064	0.76257	0.64841
61	H	0.386797	0.651097	0.612532
62	H	0.299316	0.627083	0.621452
63	H	0.214308	0.585145	0.624825
64	H	0.357608	0.744854	0.62229
65	H	0.306005	0.687705	0.751466
66	H	0.220756	0.647772	0.754163
67	C	0.157405	0.586598	0.691599
68	C	0.130872	0.557735	0.729563
69	C	0.080318	0.532354	0.727936
70	C	0.054182	0.535024	0.689951
71	C	0.081448	0.564712	0.986288
72	C	0.131587	0.589424	0.986874
73	H	0.065067	0.569468	0.958347
74	H	0.149251	0.610508	0.959202
75	H	0.062542	0.51054	0.755076
76	N	0.155064	0.55352	0.768355
77	O	0.145359	0.511305	0.77481
78	O	0.145108	0.56835	0.804361
79	O	0.381667	0.486725	0.077398
80	O	0.381667	0.486725	0.41073
81	O	0.381667	0.486725	0.744063
82	C	0.386092	0.659494	0.018122
83	C	0.387664	0.736602	0.017233
84	C	0.400754	0.648936	0.060135
85	C	0.426346	0.624367	0.060759
86	C	0.436382	0.607347	0.019649
87	C	0.420953	0.617749	0.977664
88	C	0.396837	0.643831	0.976836
89	C	0.420123	0.762599	0.052802
90	C	0.445434	0.812731	0.052665
91	C	0.437932	0.83913	0.01807
92	C	0.405364	0.812806	0.982395
93	H	0.438146	0.619586	0.091877
94	H	0.393508	0.659836	0.090618
95	H	0.426933	0.606112	0.946954
96	H	0.425986	0.745231	0.079062
97	H	0.398409	0.830067	0.956692
98	C	0.461832	0.5814	0.02023
99	C	0.451541	0.543916	0.052032
100	N	0.413599	0.529186	0.08389
101	O	0.427945	0.533543	0.124853
102	C	0.462865	0.890437	0.018862
103	N	0.444002	0.893402	0.100684
104	O	0.413056	0.903668	0.112932
105	C	0.386092	0.659494	0.351456
106	C	0.387664	0.736602	0.350567
107	C	0.400754	0.648936	0.393469
108	C	0.426346	0.624367	0.394093
109	C	0.436382	0.607347	0.35298
110	C	0.420953	0.617749	0.310997
111	C	0.396837	0.643831	0.31017
112	C	0.420123	0.762599	0.386135
113	C	0.445434	0.812731	0.385997
114	C	0.437932	0.83913	0.351404
115	C	0.405364	0.812806	0.315728
116	H	0.438146	0.619586	0.425209
117	H	0.393508	0.659836	0.423951
118	H	0.426933	0.606112	0.280287
119	H	0.425986	0.745231	0.412396
120	H	0.398409	0.830067	0.290025
121	C	0.461832	0.5814	0.353563
122	C	0.451541	0.543916	0.385366
123	N	0.413599	0.529186	0.417223
124	O	0.427945	0.533543	0.458188
125	C	0.462865	0.890437	0.352194
126	N	0.444002	0.893402	0.434016
127	O	0.413056	0.903668	0.446264
128	C	0.386092	0.659494	0.684789
129	C	0.387664	0.736602	0.683899
130	C	0.400754	0.648936	0.726801
131	C	0.426346	0.624367	0.727425
132	C	0.436382	0.607347	0.686316
133	C	0.420953	0.617749	0.644331
134	C	0.396837	0.643831	0.643504
135	C	0.420123	0.762599	0.719467
136	C	0.445434	0.812731	0.719333
137	C	0.437932	0.83913	0.684737
138	C	0.405364	0.812806	0.649062
139	H	0.438146	0.619586	0.758542
140	H	0.393508	0.659836	0.757283
141	H	0.426933	0.606112	0.613622
142	H	0.425986	0.745231	0.745728
143	H	0.398409	0.830067	0.623359
144	C	0.461832	0.5814	0.686896
145	C	0.451541	0.543916	0.718698
146	N	0.413599	0.529186	0.750556
147	O	0.427945	0.533543	0.79152
148	C	0.462865	0.890437	0.685527
149	N	0.444002	0.893402	0.767349
150	O	0.413056	0.903668	0.779597
151	H	0.469766	0.829804	0.078293
152	C	0.478169	0.520012	0.050744
153	C	0.514695	0.531443	0.018075
154	C	0.524258	0.568251	0.319737
155	C	0.498703	0.592813	0.321061
156	H	0.55087	0.578339	0.2959
157	H	0.508004	0.619985	0.298048
158	C	0.540792	0.506489	0.017121
159	C	0.560199	0.499117	0.057893
160	C	0.572595	0.462473	0.308339
161	C	0.547813	0.487914	0.308918
162	H	0.556838	0.512669	0.088629
163	H	0.575236	0.448476	0.277623
164	H	0.533632	0.491549	0.278707
165	H	0.46962	0.492741	0.073466
166	C	0.467153	0.917142	0.05944
167	C	0.493138	0.967673	0.058127
168	C	0.514578	0.993114	0.017221
169	C	0.509329	0.966345	0.310339
170	C	0.484366	0.916213	0.311268
171	H	0.52475	0.983236	0.280054
172	H	0.482787	0.898574	0.281464
173	C	0.540344	0.044111	0.016694
174	C	0.576148	0.070389	0.049686
175	C	0.555331	0.120309	0.317126
176	C	0.530608	0.070103	0.316896
177	H	0.545652	0.137167	0.293339
178	H	0.504357	0.052592	0.29292
179	H	0.495299	0.986123	0.087537
180	O	0.473091	0.903152	0.13321
181	H	0.469766	0.829804	0.411627
182	C	0.478169	0.520012	0.384076
183	C	0.514695	0.531443	0.351408
184	C	0.524258	0.568251	0.653069
185	C	0.498703	0.592813	0.654393
186	H	0.55087	0.578339	0.629232
187	H	0.508004	0.619985	0.63138
188	C	0.540792	0.506489	0.350456
189	C	0.560199	0.499117	0.391224
190	C	0.572595	0.462473	0.641673
191	C	0.547813	0.487914	0.642252
192	H	0.556838	0.512669	0.421961
193	H	0.575236	0.448476	0.610956
194	H	0.533632	0.491549	0.612039
195	H	0.46962	0.492741	0.4068
196	C	0.467153	0.917142	0.392772
197	C	0.493138	0.967673	0.391459
198	C	0.514578	0.993114	0.350556
199	C	0.509329	0.966345	0.643673
200	C	0.484366	0.916213	0.6446
201	H	0.52475	0.983236	0.613387
202	H	0.482787	0.898574	0.614797
203	C	0.540344	0.044111	0.350025
204	C	0.576148	0.070389	0.383017
205	C	0.555331	0.120309	0.650459
206	C	0.530608	0.070103	0.650228
207	H	0.545652	0.137167	0.626673
208	H	0.504357	0.052592	0.626252
209	H	0.495299	0.986123	0.420868
210	O	0.473091	0.903152	0.466543
211	H	0.469766	0.829804	0.74496
212	C	0.478169	0.520012	0.717409
213	C	0.514695	0.531443	0.68474
214	C	0.524258	0.568251	0.986405
215	C	0.498703	0.592813	0.987729
216	H	0.55087	0.578339	0.962564
217	H	0.508004	0.619985	0.964712
218	C	0.540792	0.506489	0.683789
219	C	0.560199	0.499117	0.72456
220	C	0.572595	0.462473	0.975005
221	C	0.547813	0.487914	0.975584
222	H	0.556838	0.512669	0.755294
223	H	0.575236	0.448476	0.944289
224	H	0.533632	0.491549	0.945371
225	H	0.46962	0.492741	0.740132
226	C	0.467153	0.917142	0.726105
227	C	0.493138	0.967673	0.724795
228	C	0.514578	0.993114	0.683889
229	C	0.509329	0.966345	0.977005
230	C	0.484366	0.916213	0.977933
231	H	0.52475	0.983236	0.94672
232	H	0.482787	0.898574	0.94813
233	C	0.540344	0.044111	0.683358
234	C	0.576148	0.070389	0.71635
235	C	0.555331	0.120309	0.983791
236	C	0.530608	0.070103	0.983564
237	H	0.545652	0.137167	0.960006
238	H	0.504357	0.052592	0.959585
239	H	0.495299	0.986123	0.754204
240	O	0.473091	0.903152	0.799875
241	C	0.585492	0.474234	0.05713
242	H	0.584989	0.053087	0.073813
243	C	0.585492	0.474234	0.390462
244	H	0.584989	0.053087	0.407148
245	C	0.585492	0.474234	0.723795
246	H	0.584989	0.053087	0.74048
247	N	0.693477	0.351622	0.01629
248	C	0.667569	0.376476	0.015366
249	C	0.668104	0.300938	0.016576
250	C	0.744288	0.376999	0.01783
251	C	0.769207	0.410155	0.053155
252	C	0.819417	0.436259	0.053664
253	C	0.847198	0.429516	0.019787
254	C	0.821427	0.395368	0.984963
255	C	0.771263	0.370335	0.983519
256	C	0.637819	0.37282	0.052526
257	C	0.612862	0.398016	0.052318
258	C	0.617114	0.428555	0.015332
259	C	0.64722	0.431976	0.978212
260	C	0.671826	0.406342	0.978112
261	C	0.658262	0.275249	0.058204
262	C	0.632788	0.225047	0.058188
263	C	0.617058	0.198463	0.016597
264	C	0.627753	0.224997	0.975005
265	C	0.652302	0.27518	0.974981
266	H	0.59097	0.393278	0.079622
267	H	0.634124	0.351642	0.080128
268	H	0.693531	0.410077	0.950947
269	H	0.652486	0.454168	0.951033
270	H	0.750761	0.416292	0.07823
271	H	0.835379	0.461173	0.079013
272	H	0.669078	0.293107	0.08886
273	H	0.625258	0.208107	0.089368
274	H	0.618433	0.208046	0.943827
275	H	0.659329	0.293001	0.944299
276	H	0.754425	0.346506	0.957468
277	H	0.838847	0.387604	0.960143
278	C	0.592082	0.45489	0.015756
279	H	0.599747	0.471034	0.087453
280	C	0.601382	0.12058	0.049319
281	C	0.591531	0.147022	0.016563
282	H	0.627895	0.137628	0.073095
283	C	0.002614	0.508902	0.022357
284	C	0.975055	0.498843	0.063126
285	C	0.924861	0.472814	0.062318
286	C	0.898831	0.45594	0.020604
287	C	0.926463	0.466509	0.313111
288	C	0.976677	0.491716	0.313993
289	H	0.991226	0.510924	0.094372
290	H	0.907584	0.465783	0.093259
291	H	0.910368	0.456503	0.281604
292	H	0.994106	0.496806	0.283327
293	N	0.693477	0.351622	0.349622
294	C	0.667569	0.376476	0.348701
295	C	0.668104	0.300938	0.349911
296	C	0.744288	0.376999	0.351163
297	C	0.769207	0.410155	0.386486
298	C	0.819417	0.436259	0.386997
299	C	0.847198	0.429516	0.353122
300	C	0.821427	0.395368	0.318296
301	C	0.771263	0.370335	0.316853
302	C	0.637819	0.37282	0.385859
303	C	0.612862	0.398016	0.385652
304	C	0.617114	0.428555	0.348667
305	C	0.64722	0.431976	0.311545
306	C	0.671826	0.406342	0.311447
307	C	0.658262	0.275249	0.391538
308	C	0.632788	0.225047	0.391521
309	C	0.617058	0.198463	0.349932
310	C	0.627753	0.224997	0.308339
311	C	0.652302	0.27518	0.308315
312	H	0.59097	0.393278	0.412955
313	H	0.634124	0.351642	0.413461
314	H	0.693531	0.410077	0.28428
315	H	0.652486	0.454168	0.284368
316	H	0.750761	0.416292	0.411561
317	H	0.835379	0.461173	0.412348
318	H	0.669078	0.293107	0.422192
319	H	0.625258	0.208107	0.422703
320	H	0.618433	0.208046	0.27716
321	H	0.659329	0.293001	0.277634
322	H	0.754425	0.346506	0.290803
323	H	0.838847	0.387604	0.293477
324	C	0.592082	0.45489	0.349091
325	H	0.599747	0.471034	0.420785
326	C	0.601382	0.12058	0.382652
327	C	0.591531	0.147022	0.349898
328	H	0.627895	0.137628	0.406427
329	C	0.002614	0.508902	0.355691
330	C	0.975055	0.498843	0.396458
331	C	0.924861	0.472814	0.395652
332	C	0.898831	0.45594	0.353935
333	C	0.926463	0.466509	0.646445
334	C	0.976677	0.491716	0.647328
335	H	0.991226	0.510924	0.427706
336	H	0.907584	0.465783	0.426592
337	H	0.910368	0.456503	0.614935
338	H	0.994106	0.496806	0.616659
339	N	0.693477	0.351622	0.682954
340	C	0.667569	0.376476	0.682034
341	C	0.668104	0.300938	0.683244
342	C	0.744288	0.376999	0.684496
343	C	0.769207	0.410155	0.719822
344	C	0.819417	0.436259	0.720329
345	C	0.847198	0.429516	0.686454
346	C	0.821427	0.395368	0.651628
347	C	0.771263	0.370335	0.650186
348	C	0.637819	0.37282	0.719191
349	C	0.612862	0.398016	0.718984
350	C	0.617114	0.428555	0.681999
351	C	0.64722	0.431976	0.644879
352	C	0.671826	0.406342	0.644779
353	C	0.658262	0.275249	0.72487
354	C	0.632788	0.225047	0.724853
355	C	0.617058	0.198463	0.683265
356	C	0.627753	0.224997	0.641673
357	C	0.652302	0.27518	0.641648
358	H	0.59097	0.393278	0.746287
359	H	0.634124	0.351642	0.746794
360	H	0.693531	0.410077	0.617611
361	H	0.652486	0.454168	0.617701
362	H	0.750761	0.416292	0.744897
363	H	0.835379	0.461173	0.74568
364	H	0.669078	0.293107	0.755525
365	H	0.625258	0.208107	0.756035
366	H	0.618433	0.208046	0.610494
367	H	0.659329	0.293001	0.610967
368	H	0.754425	0.346506	0.624135
369	H	0.838847	0.387604	0.626811
370	C	0.592082	0.45489	0.682423
371	H	0.599747	0.471034	0.754118
372	C	0.601382	0.12058	0.715984
373	C	0.591531	0.147022	0.68323
374	H	0.627895	0.137628	0.73976
375	C	0.002614	0.508902	0.689023
376	C	0.975055	0.498843	0.729791
377	C	0.924861	0.472814	0.728984
378	C	0.898831	0.45594	0.687271
379	C	0.926463	0.466509	0.979777
380	C	0.976677	0.491716	0.98066
381	H	0.991226	0.510924	0.761038
382	H	0.907584	0.465783	0.759925
383	H	0.910368	0.456503	0.948271
384	H	0.994106	0.496806	0.949992
