data_C174H138N36O6_2018-02-15_10:34:42
#******************************************
#
# CIF file created by Zeo++
# Zeo++ is an open source package to
# analyze microporous materials
#
#*******************************************

_cell_length_a		25.2408   
_cell_length_b		25.2424   
_cell_length_c		30.0298   
_cell_angle_alpha		90   
_cell_angle_beta		90   
_cell_angle_gamma		90.0377   

_symmetry_space_group_name_H-M		'P1'
_symmetry_Int_Tables_number		1
_symmetry_cell_setting		Monoclinic

loop_
_symmetry_equiv_pos_as_xyz
'+x,+y,+z'

loop_
_atom_site_label
_atom_site_type_symbol
_atom_site_fract_x
_atom_site_fract_y
_atom_site_fract_z
1	C	0.918176	0.852238	0.000591
2	C	0.874594	0.885191	0.001505
3	C	0.892496	0.937599	0.002024
4	N	0.946106	0.934422	0.001943
5	C	0.963754	0.883717	0.001092
6	C	0.016608	0.864175	0.000357
7	C	0.06286	0.896212	0.000679
8	N	0.065728	0.94963	0.001742
9	C	0.11638	0.966934	0.001205
10	C	0.148106	0.921641	0.999795
11	C	0.115132	0.878048	0.999834
12	C	0.134558	0.02016	0.00157
13	C	0.101285	0.065615	0.002584
14	N	0.047681	0.068763	0.002523
15	C	0.030041	0.11946	0.003431
16	C	0.075595	0.150959	0.004279
17	C	0.11918	0.11801	0.003959
18	C	0.977206	0.139039	0.0033
19	C	0.930934	0.10707	0.002758
20	N	0.92809	0.053632	0.002562
21	C	0.877438	0.036331	0.002599
22	C	0.845694	0.081649	0.002633
23	C	0.878677	0.125262	0.002906
24	C	0.859266	0.983102	0.002532
25	C	0.803494	0.974834	0.003588
26	C	0.775703	0.977833	0.044326
27	C	0.720581	0.96989	0.045473
28	C	0.692187	0.958064	0.006119
29	C	0.720187	0.955212	0.298729
30	C	0.77527	0.963599	0.297417
31	C	0.969921	0.194923	0.004467
32	C	0.972875	0.222543	0.04529
33	C	0.965915	0.277786	0.046467
34	C	0.955165	0.306469	0.007051
35	C	0.952469	0.278646	0.299569
36	C	0.959805	0.223429	0.298237
37	C	0.190284	0.028524	0.999376
38	C	0.214195	0.042842	0.291919
39	C	0.269194	0.051072	0.289418
40	C	0.30153	0.04458	0.994135
41	C	0.277505	0.029781	0.034814
42	C	0.22237	0.022264	0.037555
43	C	0.024026	0.808344	0.997858
44	C	0.037116	0.784352	0.290146
45	C	0.019129	0.776366	0.03624
46	C	0.026919	0.72128	0.033492
47	C	0.040788	0.697225	0.992603
48	C	0.045719	0.729425	0.287638
49	H	0.054932	0.713028	0.257454
50	H	0.040776	0.806755	0.261882
51	H	0.022777	0.698806	0.061646
52	H	0.009627	0.792921	0.066318
53	H	0.916141	0.811814	0.999714
54	H	0.836219	0.872236	0.001404
55	H	0.969045	0.964748	0.002324
56	H	0.024752	0.038466	0.00119
57	H	0.12787	0.839636	0.998976
58	H	0.188541	0.919871	0.998883
59	H	0.191745	0.047276	0.263761
60	H	0.285558	0.060939	0.259364
61	H	0.205888	0.011686	0.06741
62	H	0.300082	0.024436	0.062763
63	H	0.157551	0.130959	0.004593
64	H	0.0776	0.191394	0.004957
65	H	0.805237	0.083379	0.002597
66	H	0.865985	0.163702	0.003249
67	H	0.980401	0.202684	0.074337
68	H	0.968641	0.296992	0.076396
69	H	0.957776	0.204208	0.268264
70	H	0.945552	0.298477	0.270429
71	H	0.794611	0.961499	0.267503
72	H	0.700555	0.94757	0.269617
73	H	0.701245	0.97271	0.075336
74	H	0.79534	0.986132	0.073338
75	C	0.949047	0.364962	0.0086
76	H	0.926931	0.376208	0.038516
77	H	0.9258	0.378248	0.313249
78	C	0.633753	0.951183	0.007644
79	H	0.622807	0.92855	0.037368
80	H	0.620636	0.928198	0.312082
81	C	0.047991	0.638942	0.989866
82	H	0.073939	0.626301	0.017054
83	H	0.067603	0.628135	0.292003
84	C	0.359913	0.050949	0.991287
85	H	0.373076	0.07622	0.018759
86	H	0.3709	0.070953	0.293638
87	C	0.998157	0.556216	0.32864
88	N	0.983055	0.53289	0.03404
89	C	0.983115	0.479662	0.04016
90	C	0.99978	0.446694	0.0049
91	N	0.014689	0.469952	0.299449
92	C	0.013777	0.523208	0.292857
93	H	0.971651	0.46418	0.07007
94	O	0.030102	0.543313	0.252892
95	C	0.989626	0.542235	0.219236
96	H	0.006061	0.559306	0.188882
97	H	0.955213	0.565799	0.22897
98	H	0.977084	0.501689	0.211885
99	N	0.001793	0.391023	0.007696
100	H	0.023735	0.380711	0.035184
101	N	0.99588	0.611948	0.326636
102	H	0.971759	0.622743	0.300628
103	C	0.441908	0.999962	0.32892
104	N	0.465468	0.984488	0.034108
105	C	0.518754	0.984254	0.0399
106	C	0.551506	0.001177	0.004568
107	N	0.528006	0.016397	0.299314
108	C	0.474703	0.015606	0.292995
109	H	0.534432	0.972659	0.069698
110	O	0.454362	0.032247	0.253217
111	C	0.454767	0.991877	0.219461
112	H	0.437572	0.008543	0.189254
113	H	0.430986	0.957613	0.229262
114	H	0.495134	0.979049	0.21182
115	N	0.607167	0.003631	0.007234
116	H	0.617407	0.025438	0.034825
117	N	0.386124	0.998401	0.327326
118	H	0.374698	0.974798	0.301161
119	C	0.918176	0.852238	0.333925
120	C	0.874594	0.885191	0.334837
121	C	0.892496	0.937599	0.335356
122	N	0.946106	0.934422	0.335277
123	C	0.963754	0.883717	0.334427
124	C	0.016608	0.864175	0.333691
125	C	0.06286	0.896212	0.334014
126	N	0.065728	0.94963	0.335077
127	C	0.11638	0.966934	0.334541
128	C	0.148106	0.921641	0.333129
129	C	0.115132	0.878048	0.333169
130	C	0.134558	0.02016	0.334904
131	C	0.101285	0.065615	0.335919
132	N	0.047681	0.068763	0.335856
133	C	0.030041	0.11946	0.336765
134	C	0.075595	0.150959	0.337614
135	C	0.11918	0.11801	0.337295
136	C	0.977206	0.139039	0.336635
137	C	0.930934	0.10707	0.336092
138	N	0.92809	0.053632	0.335896
139	C	0.877438	0.036331	0.335933
140	C	0.845694	0.081649	0.335966
141	C	0.878677	0.125262	0.336239
142	C	0.859266	0.983102	0.335866
143	C	0.803494	0.974834	0.336922
144	C	0.775703	0.977833	0.377658
145	C	0.720581	0.96989	0.378807
146	C	0.692187	0.958064	0.339452
147	C	0.720187	0.955212	0.632061
148	C	0.77527	0.963599	0.630749
149	C	0.969921	0.194923	0.337801
150	C	0.972875	0.222543	0.378623
151	C	0.965915	0.277786	0.379799
152	C	0.955165	0.306469	0.340385
153	C	0.952469	0.278646	0.632904
154	C	0.959805	0.223429	0.631572
155	C	0.190284	0.028524	0.332709
156	C	0.214195	0.042842	0.625251
157	C	0.269194	0.051072	0.622751
158	C	0.30153	0.04458	0.327469
159	C	0.277505	0.029781	0.368147
160	C	0.22237	0.022264	0.370888
161	C	0.024026	0.808344	0.33119
162	C	0.037116	0.784352	0.62348
163	C	0.019129	0.776366	0.369572
164	C	0.026919	0.72128	0.366825
165	C	0.040788	0.697225	0.325937
166	C	0.045719	0.729425	0.620972
167	H	0.054932	0.713028	0.590789
168	H	0.040776	0.806755	0.595215
169	H	0.022777	0.698806	0.394981
170	H	0.009627	0.792921	0.399653
171	H	0.916141	0.811814	0.333049
172	H	0.836219	0.872236	0.334737
173	H	0.969045	0.964748	0.335656
174	H	0.024752	0.038466	0.334524
175	H	0.12787	0.839636	0.33231
176	H	0.188541	0.919871	0.332216
177	H	0.191745	0.047276	0.597096
178	H	0.285558	0.060939	0.592697
179	H	0.205888	0.011686	0.400745
180	H	0.300082	0.024436	0.396096
181	H	0.157551	0.130959	0.337927
182	H	0.0776	0.191394	0.33829
183	H	0.805237	0.083379	0.335929
184	H	0.865985	0.163702	0.336582
185	H	0.980401	0.202684	0.407671
186	H	0.968641	0.296992	0.409729
187	H	0.957776	0.204208	0.601598
188	H	0.945552	0.298477	0.603763
189	H	0.794611	0.961499	0.600836
190	H	0.700555	0.94757	0.60295
191	H	0.701245	0.97271	0.40867
192	H	0.79534	0.986132	0.406672
193	C	0.949047	0.364962	0.341933
194	H	0.926931	0.376208	0.37185
195	H	0.9258	0.378248	0.646584
196	C	0.633753	0.951183	0.340978
197	H	0.622807	0.92855	0.370701
198	H	0.620636	0.928198	0.645415
199	C	0.047991	0.638942	0.323199
200	H	0.073939	0.626301	0.350388
201	H	0.067603	0.628135	0.625338
202	C	0.359913	0.050949	0.324618
203	H	0.373076	0.07622	0.352093
204	H	0.3709	0.070953	0.626973
205	C	0.998157	0.556216	0.661975
206	N	0.983055	0.53289	0.367375
207	C	0.983115	0.479662	0.373495
208	C	0.99978	0.446694	0.338234
209	N	0.014689	0.469952	0.632784
210	C	0.013777	0.523208	0.626191
211	H	0.971651	0.46418	0.403405
212	O	0.030102	0.543313	0.586227
213	C	0.989626	0.542235	0.55257
214	H	0.006061	0.559306	0.522217
215	H	0.955213	0.565799	0.562304
216	H	0.977084	0.501689	0.545218
217	N	0.001793	0.391023	0.341031
218	H	0.023735	0.380711	0.368517
219	N	0.99588	0.611948	0.65997
220	H	0.971759	0.622743	0.633963
221	C	0.441908	0.999962	0.662255
222	N	0.465468	0.984488	0.367441
223	C	0.518754	0.984254	0.373235
224	C	0.551506	0.001177	0.337901
225	N	0.528006	0.016397	0.632647
226	C	0.474703	0.015606	0.62633
227	H	0.534432	0.972659	0.403033
228	O	0.454362	0.032247	0.58655
229	C	0.454767	0.991877	0.552794
230	H	0.437572	0.008543	0.522587
231	H	0.430986	0.957613	0.562597
232	H	0.495134	0.979049	0.545154
233	N	0.607167	0.003631	0.340568
234	H	0.617407	0.025438	0.368157
235	N	0.386124	0.998401	0.66066
236	H	0.374698	0.974798	0.634496
237	C	0.918176	0.852238	0.66726
238	C	0.874594	0.885191	0.668172
239	C	0.892496	0.937599	0.668692
240	N	0.946106	0.934422	0.668612
241	C	0.963754	0.883717	0.667759
242	C	0.016608	0.864175	0.667023
243	C	0.06286	0.896212	0.667346
244	N	0.065728	0.94963	0.668409
245	C	0.11638	0.966934	0.667872
246	C	0.148106	0.921641	0.666464
247	C	0.115132	0.878048	0.6665
248	C	0.134558	0.02016	0.668239
249	C	0.101285	0.065615	0.669251
250	N	0.047681	0.068763	0.669191
251	C	0.030041	0.11946	0.6701
252	C	0.075595	0.150959	0.670946
253	C	0.11918	0.11801	0.670626
254	C	0.977206	0.139039	0.669967
255	C	0.930934	0.10707	0.669424
256	N	0.92809	0.053632	0.669228
257	C	0.877438	0.036331	0.669268
258	C	0.845694	0.081649	0.669301
259	C	0.878677	0.125262	0.669574
260	C	0.859266	0.983102	0.669201
261	C	0.803494	0.974834	0.670257
262	C	0.775703	0.977833	0.710993
263	C	0.720581	0.96989	0.712142
264	C	0.692187	0.958064	0.672788
265	C	0.720187	0.955212	0.965397
266	C	0.77527	0.963599	0.964085
267	C	0.969921	0.194923	0.671136
268	C	0.972875	0.222543	0.711959
269	C	0.965915	0.277786	0.713134
270	C	0.955165	0.306469	0.67372
271	C	0.952469	0.278646	0.966236
272	C	0.959805	0.223429	0.964904
273	C	0.190284	0.028524	0.666044
274	C	0.214195	0.042842	0.958587
275	C	0.269194	0.051072	0.956086
276	C	0.30153	0.04458	0.660803
277	C	0.277505	0.029781	0.701482
278	C	0.22237	0.022264	0.704223
279	C	0.024026	0.808344	0.664522
280	C	0.037116	0.784352	0.956812
281	C	0.019129	0.776366	0.702908
282	C	0.026919	0.72128	0.70016
283	C	0.040788	0.697225	0.659271
284	C	0.045719	0.729425	0.954304
285	H	0.054932	0.713028	0.924121
286	H	0.040776	0.806755	0.92855
287	H	0.022777	0.698806	0.728312
288	H	0.009627	0.792921	0.732984
289	H	0.916141	0.811814	0.666381
290	H	0.836219	0.872236	0.668072
291	H	0.969045	0.964748	0.668991
292	H	0.024752	0.038466	0.667856
293	H	0.12787	0.839636	0.665645
294	H	0.188541	0.919871	0.665548
295	H	0.191745	0.047276	0.930428
296	H	0.285558	0.060939	0.926032
297	H	0.205888	0.011686	0.734077
298	H	0.300082	0.024436	0.729431
299	H	0.157551	0.130959	0.671259
300	H	0.0776	0.191394	0.671625
301	H	0.805237	0.083379	0.669264
302	H	0.865985	0.163702	0.669917
303	H	0.980401	0.202684	0.741006
304	H	0.968641	0.296992	0.743064
305	H	0.957776	0.204208	0.93493
306	H	0.945552	0.298477	0.937098
307	H	0.794611	0.961499	0.934171
308	H	0.700555	0.94757	0.936285
309	H	0.701245	0.97271	0.742002
310	H	0.79534	0.986132	0.740004
311	C	0.949047	0.364962	0.675268
312	H	0.926931	0.376208	0.705182
313	H	0.9258	0.378248	0.979915
314	C	0.633753	0.951183	0.674313
315	H	0.622807	0.92855	0.704036
316	H	0.620636	0.928198	0.97875
317	C	0.047991	0.638942	0.656534
318	H	0.073939	0.626301	0.68372
319	H	0.067603	0.628135	0.95867
320	C	0.359913	0.050949	0.657952
321	H	0.373076	0.07622	0.685428
322	H	0.3709	0.070953	0.960305
323	C	0.998157	0.556216	0.995307
324	N	0.983055	0.53289	0.700706
325	C	0.983115	0.479662	0.706827
326	C	0.99978	0.446694	0.671569
327	N	0.014689	0.469952	0.966116
328	C	0.013777	0.523208	0.959526
329	H	0.971651	0.46418	0.736737
330	O	0.030102	0.543313	0.919559
331	C	0.989626	0.542235	0.885902
332	H	0.006061	0.559306	0.855549
333	H	0.955213	0.565799	0.895636
334	H	0.977084	0.501689	0.878553
335	N	0.001793	0.391023	0.674363
336	H	0.023735	0.380711	0.701852
337	N	0.99588	0.611948	0.993305
338	H	0.971759	0.622743	0.967295
339	C	0.441908	0.999962	0.995587
340	N	0.465468	0.984488	0.700776
341	C	0.518754	0.984254	0.706567
342	C	0.551506	0.001177	0.671236
343	N	0.528006	0.016397	0.965983
344	C	0.474703	0.015606	0.959662
345	H	0.534432	0.972659	0.736364
346	O	0.454362	0.032247	0.919885
347	C	0.454767	0.991877	0.886129
348	H	0.437572	0.008543	0.855922
349	H	0.430986	0.957613	0.895929
350	H	0.495134	0.979049	0.878486
351	N	0.607167	0.003631	0.673903
352	H	0.617407	0.025438	0.701492
353	N	0.386124	0.998401	0.993995
354	H	0.374698	0.974798	0.967827
