data_C198H90N36_2018-02-15_10:41:34
#******************************************
#
# CIF file created by Zeo++
# Zeo++ is an open source package to
# analyze microporous materials
#
#*******************************************

_cell_length_a		29.9522   
_cell_length_b		29.9522   
_cell_length_c		29.8152   
_cell_angle_alpha		90   
_cell_angle_beta		90   
_cell_angle_gamma		120   

_symmetry_space_group_name_H-M		'P1'
_symmetry_Int_Tables_number		1
_symmetry_cell_setting		Monoclinic

loop_
_symmetry_equiv_pos_as_xyz
'+x,+y,+z'

loop_
_atom_site_label
_atom_site_type_symbol
_atom_site_fract_x
_atom_site_fract_y
_atom_site_fract_z
1	C	0.05841	0.529979	0.004705
2	N	0.032513	0.517033	0.2984
3	C	0.029	0.515271	0.044745
4	C	0.049053	0.525298	0.084735
5	C	0.05841	0.529979	0.338038
6	N	0.032513	0.517033	0.631734
7	C	0.029	0.515271	0.378078
8	C	0.049053	0.525298	0.418068
9	C	0.05841	0.529979	0.671371
10	N	0.032513	0.517033	0.965067
11	C	0.029	0.515271	0.711411
12	C	0.049053	0.525298	0.751404
13	N	0.066911	0.534227	0.119975
14	N	0.066911	0.534227	0.453308
15	N	0.066911	0.534227	0.786641
16	C	0.28166	0.641604	0.002229
17	C	0.311404	0.616611	0.002209
18	C	0.366139	0.6416	0.002226
19	C	0.391129	0.696336	0.002199
20	C	0.36614	0.726082	0.002226
21	C	0.311406	0.69634	0.002215
22	C	0.394557	0.613184	0.002393
23	C	0.369463	0.558144	0.002564
24	C	0.39637	0.530769	0.003054
25	C	0.45053	0.557211	0.003375
26	C	0.476971	0.611368	0.003064
27	C	0.449597	0.638277	0.002578
28	C	0.224823	0.613184	0.002397
29	C	0.194877	0.558144	0.002571
30	C	0.140596	0.530773	0.003057
31	C	0.112879	0.557215	0.003368
32	C	0.140596	0.611372	0.003051
33	C	0.194879	0.638281	0.002564
34	C	0.394559	0.782919	0.002393
35	C	0.369465	0.812865	0.002561
36	C	0.396372	0.867146	0.003044
37	C	0.450532	0.894864	0.00336
38	C	0.476973	0.867146	0.003054
39	C	0.449599	0.812865	0.002571
40	H	0.121433	0.491284	0.003411
41	H	0.211364	0.53563	0.002507
42	H	0.121432	0.631697	0.003392
43	H	0.211366	0.67728	0.00248
44	H	0.330464	0.796377	0.00248
45	H	0.376047	0.88631	0.003392
46	H	0.472112	0.796377	0.002511
47	H	0.516462	0.88631	0.003407
48	H	0.472111	0.67728	0.002511
49	H	0.516461	0.631697	0.003415
50	H	0.376045	0.491281	0.003392
51	H	0.330461	0.53563	0.002477
52	H	0.292086	0.577975	0.002172
53	H	0.292086	0.715658	0.002195
54	H	0.42977	0.715658	0.002145
55	C	0.727635	0.364592	0.004099
56	C	0.697889	0.389582	0.004113
57	C	0.643153	0.364591	0.004101
58	C	0.618163	0.309856	0.004119
59	C	0.643154	0.280111	0.004102
60	C	0.69789	0.309856	0.004112
61	C	0.614738	0.393009	0.003968
62	C	0.63983	0.448049	0.003825
63	C	0.612923	0.475424	0.003393
64	C	0.558764	0.448982	0.003098
65	C	0.532321	0.394821	0.003377
66	C	0.559696	0.367915	0.003814
67	C	0.784471	0.393009	0.003968
68	C	0.814415	0.448049	0.00382
69	C	0.868701	0.475424	0.003391
70	C	0.896418	0.448982	0.003106
71	C	0.868702	0.394825	0.003393
72	C	0.814415	0.367915	0.003823
73	C	0.614736	0.223275	0.00397
74	C	0.63983	0.193329	0.003824
75	C	0.612922	0.139046	0.003389
76	C	0.558762	0.111327	0.003114
77	C	0.53232	0.139046	0.0034
78	C	0.559695	0.193329	0.003826
79	H	0.887864	0.514913	0.003041
80	H	0.797928	0.470563	0.003866
81	H	0.887862	0.374498	0.003054
82	H	0.79793	0.328914	0.003882
83	H	0.678833	0.209818	0.003872
84	H	0.633248	0.119883	0.003051
85	H	0.537184	0.209817	0.003872
86	H	0.492834	0.119883	0.003054
87	H	0.537184	0.328913	0.003863
88	H	0.492833	0.374497	0.003037
89	H	0.633248	0.514913	0.003057
90	H	0.678832	0.470563	0.00389
91	H	0.717209	0.428222	0.004142
92	H	0.71721	0.290537	0.00414
93	H	0.579527	0.290537	0.00416
94	C	0.477764	0.529979	0.004708
95	N	0.490706	0.517025	0.298402
96	C	0.516816	0.490918	0.295072
97	C	0.531528	0.476215	0.001776
98	N	0.518586	0.489168	0.041417
99	C	0.492475	0.515275	0.044746
100	C	0.482455	0.525302	0.084738
101	C	0.526834	0.480891	0.25508
102	N	0.535759	0.471962	0.219838
103	N	0.47353	0.534231	0.11998
104	C	0.477767	0.949334	0.004701
105	N	0.49072	0.975233	0.298398
106	C	0.516831	0.027453	0.295076
107	C	0.531528	0.05686	0.001786
108	N	0.518574	0.030959	0.041421
109	C	0.492465	0.978737	0.044743
110	C	0.482434	0.958682	0.084732
111	C	0.526861	0.047505	0.255087
112	N	0.535792	0.065368	0.219848
113	N	0.473501	0.940822	0.119971
114	C	0.980297	0.490926	0.295074
115	C	0.950888	0.476219	0.001783
116	N	0.976782	0.489164	0.041419
117	C	0.960248	0.480903	0.255084
118	N	0.942389	0.471974	0.219843
119	C	0.28166	0.641604	0.335563
120	C	0.311404	0.616611	0.33554
121	C	0.366139	0.6416	0.335557
122	C	0.391129	0.696336	0.33553
123	C	0.36614	0.726082	0.335557
124	C	0.311406	0.69634	0.33555
125	C	0.394557	0.613184	0.335728
126	C	0.369463	0.558144	0.335895
127	C	0.39637	0.530769	0.336385
128	C	0.45053	0.557211	0.33671
129	C	0.476971	0.611368	0.336398
130	C	0.449597	0.638277	0.335909
131	C	0.224823	0.613184	0.335731
132	C	0.194877	0.558144	0.335905
133	C	0.140596	0.530773	0.336388
134	C	0.112879	0.557215	0.3367
135	C	0.140596	0.611372	0.336382
136	C	0.194879	0.638281	0.335899
137	C	0.394559	0.782919	0.335728
138	C	0.369465	0.812865	0.335895
139	C	0.396372	0.867146	0.336378
140	C	0.450532	0.894864	0.336694
141	C	0.476973	0.867146	0.336385
142	C	0.449599	0.812865	0.335902
143	H	0.121433	0.491284	0.336744
144	H	0.211364	0.53563	0.335842
145	H	0.121432	0.631697	0.336727
146	H	0.211366	0.67728	0.335811
147	H	0.330464	0.796377	0.335815
148	H	0.376047	0.88631	0.336727
149	H	0.472112	0.796377	0.335842
150	H	0.516462	0.88631	0.33674
151	H	0.472111	0.67728	0.335842
152	H	0.516461	0.631697	0.336751
153	H	0.376045	0.491281	0.336727
154	H	0.330461	0.53563	0.335808
155	H	0.292086	0.577975	0.335506
156	H	0.292086	0.715658	0.33553
157	H	0.42977	0.715658	0.335476
158	C	0.727635	0.364592	0.337435
159	C	0.697889	0.389582	0.337448
160	C	0.643153	0.364591	0.337435
161	C	0.618163	0.309856	0.337452
162	C	0.643154	0.280111	0.337435
163	C	0.69789	0.309856	0.337445
164	C	0.614738	0.393009	0.337301
165	C	0.63983	0.448049	0.33716
166	C	0.612923	0.475424	0.336727
167	C	0.558764	0.448982	0.336432
168	C	0.532321	0.394821	0.33671
169	C	0.559696	0.367915	0.337146
170	C	0.784471	0.393009	0.337301
171	C	0.814415	0.448049	0.337153
172	C	0.868701	0.475424	0.336724
173	C	0.896418	0.448982	0.336439
174	C	0.868702	0.394825	0.336727
175	C	0.814415	0.367915	0.337156
176	C	0.614736	0.223275	0.337304
177	C	0.63983	0.193329	0.33716
178	C	0.612922	0.139046	0.336724
179	C	0.558762	0.111327	0.336449
180	C	0.53232	0.139046	0.336734
181	C	0.559695	0.193329	0.33716
182	H	0.887864	0.514913	0.336375
183	H	0.797928	0.470563	0.3372
184	H	0.887862	0.374498	0.336388
185	H	0.79793	0.328914	0.337217
186	H	0.678833	0.209818	0.337207
187	H	0.633248	0.119883	0.336382
188	H	0.537184	0.209817	0.337207
189	H	0.492834	0.119883	0.336385
190	H	0.537184	0.328913	0.337197
191	H	0.492833	0.374497	0.336368
192	H	0.633248	0.514913	0.336388
193	H	0.678832	0.470563	0.337223
194	H	0.717209	0.428222	0.337475
195	H	0.71721	0.290537	0.337475
196	H	0.579527	0.290537	0.337495
197	C	0.477764	0.529979	0.338042
198	N	0.490706	0.517025	0.631737
199	C	0.516816	0.490918	0.628407
200	C	0.531528	0.476215	0.335109
201	N	0.518586	0.489168	0.374751
202	C	0.492475	0.515275	0.378078
203	C	0.482455	0.525302	0.418071
204	C	0.526834	0.480891	0.588414
205	N	0.535759	0.471962	0.553173
206	N	0.47353	0.534231	0.453312
207	C	0.477767	0.949334	0.338035
208	N	0.49072	0.975233	0.631731
209	C	0.516831	0.027453	0.62841
210	C	0.531528	0.05686	0.335117
211	N	0.518574	0.030959	0.374755
212	C	0.492465	0.978737	0.378078
213	C	0.482434	0.958682	0.418065
214	C	0.526861	0.047505	0.58842
215	N	0.535792	0.065368	0.553183
216	N	0.473501	0.940822	0.453305
217	C	0.980297	0.490926	0.628407
218	C	0.950888	0.476219	0.335114
219	N	0.976782	0.489164	0.374755
220	C	0.960248	0.480903	0.588417
221	N	0.942389	0.471974	0.553177
222	C	0.28166	0.641604	0.668896
223	C	0.311404	0.616611	0.668873
224	C	0.366139	0.6416	0.668889
225	C	0.391129	0.696336	0.668863
226	C	0.36614	0.726082	0.668893
227	C	0.311406	0.69634	0.668883
228	C	0.394557	0.613184	0.66906
229	C	0.369463	0.558144	0.669228
230	C	0.39637	0.530769	0.669718
231	C	0.45053	0.557211	0.670043
232	C	0.476971	0.611368	0.669731
233	C	0.449597	0.638277	0.669242
234	C	0.224823	0.613184	0.669064
235	C	0.194877	0.558144	0.669238
236	C	0.140596	0.530773	0.669724
237	C	0.112879	0.557215	0.670036
238	C	0.140596	0.611372	0.669718
239	C	0.194879	0.638281	0.669231
240	C	0.394559	0.782919	0.66906
241	C	0.369465	0.812865	0.669228
242	C	0.396372	0.867146	0.669711
243	C	0.450532	0.894864	0.670026
244	C	0.476973	0.867146	0.669718
245	C	0.449599	0.812865	0.669235
246	H	0.121433	0.491284	0.67008
247	H	0.211364	0.53563	0.669174
248	H	0.121432	0.631697	0.67006
249	H	0.211366	0.67728	0.669148
250	H	0.330464	0.796377	0.669148
251	H	0.376047	0.88631	0.67006
252	H	0.472112	0.796377	0.669174
253	H	0.516462	0.88631	0.670073
254	H	0.472111	0.67728	0.669174
255	H	0.516461	0.631697	0.670083
256	H	0.376045	0.491281	0.67006
257	H	0.330461	0.53563	0.669144
258	H	0.292086	0.577975	0.668839
259	H	0.292086	0.715658	0.668863
260	H	0.42977	0.715658	0.668809
261	C	0.727635	0.364592	0.670768
262	C	0.697889	0.389582	0.670781
263	C	0.643153	0.364591	0.670768
264	C	0.618163	0.309856	0.670788
265	C	0.643154	0.280111	0.670771
266	C	0.69789	0.309856	0.670781
267	C	0.614738	0.393009	0.670637
268	C	0.63983	0.448049	0.670493
269	C	0.612923	0.475424	0.67006
270	C	0.558764	0.448982	0.669765
271	C	0.532321	0.394821	0.670043
272	C	0.559696	0.367915	0.670482
273	C	0.784471	0.393009	0.670637
274	C	0.814415	0.448049	0.670489
275	C	0.868701	0.475424	0.670057
276	C	0.896418	0.448982	0.669775
277	C	0.868702	0.394825	0.67006
278	C	0.814415	0.367915	0.670493
279	C	0.614736	0.223275	0.670637
280	C	0.63983	0.193329	0.670493
281	C	0.612922	0.139046	0.670057
282	C	0.558762	0.111327	0.669782
283	C	0.53232	0.139046	0.670067
284	C	0.559695	0.193329	0.670493
285	H	0.887864	0.514913	0.669708
286	H	0.797928	0.470563	0.670533
287	H	0.887862	0.374498	0.669721
288	H	0.79793	0.328914	0.67055
289	H	0.678833	0.209818	0.67054
290	H	0.633248	0.119883	0.669714
291	H	0.537184	0.209817	0.67054
292	H	0.492834	0.119883	0.669721
293	H	0.537184	0.328913	0.670529
294	H	0.492833	0.374497	0.669701
295	H	0.633248	0.514913	0.669724
296	H	0.678832	0.470563	0.670556
297	H	0.717209	0.428222	0.670808
298	H	0.71721	0.290537	0.670808
299	H	0.579527	0.290537	0.670828
300	C	0.477764	0.529979	0.671375
301	N	0.490706	0.517025	0.96507
302	C	0.516816	0.490918	0.96174
303	C	0.531528	0.476215	0.668443
304	N	0.518586	0.489168	0.708084
305	C	0.492475	0.515275	0.711415
306	C	0.482455	0.525302	0.751404
307	C	0.526834	0.480891	0.921747
308	N	0.535759	0.471962	0.886506
309	N	0.47353	0.534231	0.786648
310	C	0.477767	0.949334	0.671368
311	N	0.49072	0.975233	0.965067
312	C	0.516831	0.027453	0.961743
313	C	0.531528	0.05686	0.66845
314	N	0.518574	0.030959	0.708087
315	C	0.492465	0.978737	0.711411
316	C	0.482434	0.958682	0.751401
317	C	0.526861	0.047505	0.921753
318	N	0.535792	0.065368	0.886516
319	N	0.473501	0.940822	0.786638
320	C	0.980297	0.490926	0.961743
321	C	0.950888	0.476219	0.668447
322	N	0.976782	0.489164	0.708087
323	C	0.960248	0.480903	0.92175
324	N	0.942389	0.471974	0.88651
