data_C192H114N36O6_2018-02-15_10:47:44
#******************************************
#
# CIF file created by Zeo++
# Zeo++ is an open source package to
# analyze microporous materials
#
#*******************************************

_cell_length_a		25.6396   
_cell_length_b		25.6394   
_cell_length_c		29.162   
_cell_angle_alpha		90   
_cell_angle_beta		90   
_cell_angle_gamma		90.0371   

_symmetry_space_group_name_H-M		'P1'
_symmetry_Int_Tables_number		1
_symmetry_cell_setting		Monoclinic

loop_
_symmetry_equiv_pos_as_xyz
'+x,+y,+z'

loop_
_atom_site_label
_atom_site_type_symbol
_atom_site_fract_x
_atom_site_fract_y
_atom_site_fract_z
1	C	0.787058	0.02133	0.041423
2	C	0.732242	0.016949	0.038612
3	C	0.018639	0.239847	0.041497
4	C	0.014556	0.294687	0.038707
5	C	0.29222	0.01227	0.041636
6	C	0.237383	0.007621	0.043538
7	C	0.005843	0.789839	0.043317
8	C	0.010305	0.734982	0.041502
9	H	0.002916	0.713769	0.070527
10	H	0.995004	0.807051	0.073511
11	H	0.220272	0.996486	0.073699
12	H	0.31353	0.004688	0.070562
13	H	0.028765	0.223204	0.072126
14	H	0.021534	0.316449	0.067491
15	H	0.710409	0.024339	0.06727
16	H	0.803598	0.032195	0.071905
17	C	0.010016	0.542205	0.046883
18	C	0.015434	0.487656	0.04703
19	H	0.017346	0.468607	0.077849
20	H	0.008621	0.561476	0.07762
21	C	0.48484	0.011845	0.046937
22	C	0.539407	0.017146	0.047054
23	H	0.558469	0.019169	0.077864
24	H	0.465576	0.01062	0.077683
25	C	0.918882	0.876939	0.339822
26	C	0.879888	0.914074	0.340072
27	C	0.902978	0.96349	0.340203
28	N	0.955165	0.954172	0.341039
29	C	0.967027	0.902486	0.3406
30	C	0.016506	0.877021	0.340271
31	C	0.065251	0.903781	0.340669
32	N	0.074277	0.955857	0.341057
33	C	0.125869	0.967402	0.340819
34	C	0.151645	0.919448	0.340251
35	C	0.114494	0.88045	0.340697
36	C	0.150108	0.017386	0.340478
37	C	0.122145	0.065552	0.340742
38	N	0.069949	0.074854	0.341032
39	C	0.058095	0.126537	0.340386
40	C	0.106237	0.152095	0.340087
41	C	0.145223	0.114976	0.340826
42	C	0.008628	0.151985	0.339479
43	C	0.959878	0.125249	0.33971
44	N	0.950842	0.07318	0.340473
45	C	0.899255	0.061647	0.33989
46	C	0.873497	0.109602	0.338716
47	C	0.910653	0.148601	0.339111
48	C	0.875025	0.011662	0.339565
49	C	0.819091	0.009673	0.336576
50	C	0.707839	0.000121	0.330996
51	C	0.739938	0.988982	0.292739
52	C	0.79456	0.994228	0.295312
53	C	0.007514	0.207935	0.336441
54	C	0.99862	0.319217	0.330886
55	C	0.98801	0.287233	0.292432
56	C	0.992963	0.232594	0.294995
57	C	0.206094	0.019405	0.338241
58	C	0.231411	0.035263	0.297453
59	C	0.286049	0.0409	0.29581
60	C	0.317322	0.029496	0.334505
61	C	0.017687	0.821014	0.337957
62	C	0.033339	0.795569	0.297177
63	C	0.027466	0.709767	0.334413
64	C	0.03878	0.740914	0.295615
65	H	0.051908	0.724112	0.265915
66	H	0.042686	0.816919	0.26867
67	H	0.912312	0.837641	0.339087
68	H	0.840966	0.905509	0.339807
69	H	0.980994	0.981306	0.341291
70	H	0.044122	0.04772	0.340792
71	H	0.122846	0.84149	0.340685
72	H	0.190975	0.913091	0.3397
73	H	0.209984	0.044511	0.268971
74	H	0.302769	0.054035	0.26607
75	H	0.184141	0.123566	0.341001
76	H	0.112814	0.191396	0.339392
77	H	0.834176	0.115951	0.337721
78	H	0.902335	0.187565	0.338623
79	H	0.984235	0.210709	0.266646
80	H	0.975875	0.303443	0.262153
81	H	0.816521	0.985238	0.26708
82	H	0.723826	0.976275	0.262595
83	C	0.98929	0.37257	0.32817
84	C	0.370594	0.039243	0.332969
85	C	0.037367	0.656525	0.333066
86	C	0.654474	0.990717	0.328291
87	H	0.956711	0.38417	0.31257
88	H	0.382312	0.073953	0.321541
89	H	0.07215	0.644933	0.321749
90	H	0.64285	0.958127	0.31271
91	C	0.01756	0.459242	0.339029
92	C	0.015381	0.486833	0.296608
93	C	0.008401	0.542353	0.296494
94	C	0.006797	0.57031	0.005408
95	C	0.003187	0.566562	0.252936
96	N	0.007018	0.538242	0.213965
97	C	0.015934	0.486396	0.214781
98	O	0.992717	0.617772	0.246965
99	N	0.019911	0.461208	0.255508
100	H	0.018976	0.466505	0.184507
101	H	0.026627	0.423918	0.254302
102	N	0.022001	0.407268	0.342234
103	N	0.002022	0.622191	0.008505
104	C	0.567818	0.019065	0.339042
105	C	0.540207	0.016762	0.296634
106	C	0.484667	0.009883	0.296553
107	C	0.456717	0.008518	0.00548
108	C	0.460431	0.004513	0.253019
109	N	0.488749	0.008144	0.21403
110	C	0.54062	0.016986	0.214807
111	O	0.409195	0.994072	0.247093
112	N	0.565834	0.021089	0.255515
113	H	0.560509	0.019885	0.184519
114	H	0.603144	0.027739	0.254282
115	N	0.619799	0.023477	0.342239
116	N	0.404822	0.0039	0.008608
117	C	0.918882	0.876939	0.673154
118	C	0.879888	0.914074	0.673404
119	C	0.902978	0.96349	0.673538
120	N	0.955165	0.954172	0.674371
121	C	0.967027	0.902486	0.673932
122	C	0.016506	0.877021	0.673603
123	C	0.065251	0.903781	0.674001
124	N	0.074277	0.955857	0.674392
125	C	0.125869	0.967402	0.674152
126	C	0.151645	0.919448	0.673586
127	C	0.114494	0.88045	0.674032
128	C	0.150108	0.017386	0.673812
129	C	0.122145	0.065552	0.674076
130	N	0.069949	0.074854	0.674364
131	C	0.058095	0.126537	0.67372
132	C	0.106237	0.152095	0.673421
133	C	0.145223	0.114976	0.674159
134	C	0.008628	0.151985	0.672811
135	C	0.959878	0.125249	0.673044
136	N	0.950842	0.07318	0.673805
137	C	0.899255	0.061647	0.673222
138	C	0.873497	0.109602	0.67205
139	C	0.910653	0.148601	0.672444
140	C	0.875025	0.011662	0.672897
141	C	0.819091	0.009673	0.66991
142	C	0.787058	0.02133	0.374755
143	C	0.732242	0.016949	0.371947
144	C	0.707839	0.000121	0.664327
145	C	0.739938	0.988982	0.626072
146	C	0.79456	0.994228	0.628644
147	C	0.007514	0.207935	0.669776
148	C	0.018639	0.239847	0.37483
149	C	0.014556	0.294687	0.372039
150	C	0.99862	0.319217	0.664218
151	C	0.98801	0.287233	0.625767
152	C	0.992963	0.232594	0.628328
153	C	0.206094	0.019405	0.671573
154	C	0.231411	0.035263	0.630787
155	C	0.286049	0.0409	0.629144
156	C	0.317322	0.029496	0.667839
157	C	0.29222	0.01227	0.374968
158	C	0.237383	0.007621	0.376871
159	C	0.017687	0.821014	0.671292
160	C	0.033339	0.795569	0.630509
161	C	0.005843	0.789839	0.376651
162	C	0.010305	0.734982	0.374834
163	C	0.027466	0.709767	0.667746
164	C	0.03878	0.740914	0.628949
165	H	0.051908	0.724112	0.599249
166	H	0.042686	0.816919	0.602003
167	H	0.002916	0.713769	0.403861
168	H	0.995004	0.807051	0.406845
169	H	0.912312	0.837641	0.67242
170	H	0.840966	0.905509	0.67314
171	H	0.980994	0.981306	0.674625
172	H	0.044122	0.04772	0.674124
173	H	0.122846	0.84149	0.674018
174	H	0.190975	0.913091	0.673034
175	H	0.209984	0.044511	0.602305
176	H	0.302769	0.054035	0.599404
177	H	0.220272	0.996486	0.407033
178	H	0.31353	0.004688	0.403896
179	H	0.184141	0.123566	0.674333
180	H	0.112814	0.191396	0.672725
181	H	0.834176	0.115951	0.671055
182	H	0.902335	0.187565	0.671957
183	H	0.028765	0.223204	0.405459
184	H	0.021534	0.316449	0.400823
185	H	0.984235	0.210709	0.59998
186	H	0.975875	0.303443	0.595488
187	H	0.816521	0.985238	0.600412
188	H	0.723826	0.976275	0.59593
189	H	0.710409	0.024339	0.400604
190	H	0.803598	0.032195	0.405237
191	C	0.98929	0.37257	0.661505
192	C	0.370594	0.039243	0.666302
193	C	0.037367	0.656525	0.666398
194	C	0.654474	0.990717	0.661625
195	H	0.956711	0.38417	0.645903
196	H	0.382312	0.073953	0.654873
197	H	0.07215	0.644933	0.655082
198	H	0.64285	0.958127	0.646043
199	C	0.01756	0.459242	0.672362
200	C	0.015381	0.486833	0.62994
201	C	0.008401	0.542353	0.629827
202	C	0.006797	0.57031	0.338742
203	C	0.010016	0.542205	0.380218
204	C	0.015434	0.487656	0.380362
205	C	0.003187	0.566562	0.58627
206	N	0.007018	0.538242	0.547298
207	C	0.015934	0.486396	0.548114
208	H	0.017346	0.468607	0.411183
209	H	0.008621	0.561476	0.410953
210	O	0.992717	0.617772	0.580297
211	N	0.019911	0.461208	0.588842
212	H	0.018976	0.466505	0.517842
213	H	0.026627	0.423918	0.587635
214	N	0.022001	0.407268	0.675568
215	N	0.002022	0.622191	0.341839
216	C	0.567818	0.019065	0.672375
217	C	0.540207	0.016762	0.629967
218	C	0.484667	0.009883	0.629885
219	C	0.456717	0.008518	0.338813
220	C	0.48484	0.011845	0.380269
221	C	0.539407	0.017146	0.380389
222	C	0.460431	0.004513	0.586352
223	N	0.488749	0.008144	0.547363
224	C	0.54062	0.016986	0.548142
225	H	0.558469	0.019169	0.411196
226	H	0.465576	0.01062	0.411015
227	O	0.409195	0.994072	0.580427
228	N	0.565834	0.021089	0.588849
229	H	0.560509	0.019885	0.517852
230	H	0.603144	0.027739	0.587614
231	N	0.619799	0.023477	0.675571
232	N	0.404822	0.0039	0.341942
233	C	0.918882	0.876939	0.006488
234	C	0.879888	0.914074	0.006739
235	C	0.902978	0.96349	0.006869
236	N	0.955165	0.954172	0.007706
237	C	0.967027	0.902486	0.007267
238	C	0.016506	0.877021	0.006938
239	C	0.065251	0.903781	0.007335
240	N	0.074277	0.955857	0.007723
241	C	0.125869	0.967402	0.007486
242	C	0.151645	0.919448	0.006917
243	C	0.114494	0.88045	0.007363
244	C	0.150108	0.017386	0.007143
245	C	0.122145	0.065552	0.007407
246	N	0.069949	0.074854	0.007699
247	C	0.058095	0.126537	0.007051
248	C	0.106237	0.152095	0.006753
249	C	0.145223	0.114976	0.007493
250	C	0.008628	0.151985	0.006146
251	C	0.959878	0.125249	0.006375
252	N	0.950842	0.07318	0.00714
253	C	0.899255	0.061647	0.006557
254	C	0.873497	0.109602	0.005381
255	C	0.910653	0.148601	0.005779
256	C	0.875025	0.011662	0.006231
257	C	0.819091	0.009673	0.003241
258	C	0.787058	0.02133	0.70809
259	C	0.732242	0.016949	0.705278
260	C	0.707839	0.000121	0.997662
261	C	0.739938	0.988982	0.959407
262	C	0.79456	0.994228	0.961978
263	C	0.007514	0.207935	0.003107
264	C	0.018639	0.239847	0.708165
265	C	0.014556	0.294687	0.705374
266	C	0.99862	0.319217	0.997552
267	C	0.98801	0.287233	0.959098
268	C	0.992963	0.232594	0.96166
269	C	0.206094	0.019405	0.004908
270	C	0.231411	0.035263	0.964118
271	C	0.286049	0.0409	0.962476
272	C	0.317322	0.029496	0.001173
273	C	0.29222	0.01227	0.708302
274	C	0.237383	0.007621	0.710205
275	C	0.017687	0.821014	0.004623
276	C	0.033339	0.795569	0.963844
277	C	0.005843	0.789839	0.709983
278	C	0.010305	0.734982	0.708169
279	C	0.027466	0.709767	0.001081
280	C	0.03878	0.740914	0.96228
281	H	0.051908	0.724112	0.932581
282	H	0.042686	0.816919	0.935338
283	H	0.002916	0.713769	0.737193
284	H	0.995004	0.807051	0.740176
285	H	0.912312	0.837641	0.005755
286	H	0.840966	0.905509	0.006475
287	H	0.980994	0.981306	0.007956
288	H	0.044122	0.04772	0.007459
289	H	0.122846	0.84149	0.007353
290	H	0.190975	0.913091	0.006368
291	H	0.209984	0.044511	0.935636
292	H	0.302769	0.054035	0.932735
293	H	0.220272	0.996486	0.740365
294	H	0.31353	0.004688	0.73723
295	H	0.184141	0.123566	0.007668
296	H	0.112814	0.191396	0.006056
297	H	0.834176	0.115951	0.004386
298	H	0.902335	0.187565	0.005288
299	H	0.028765	0.223204	0.738791
300	H	0.021534	0.316449	0.734158
301	H	0.984235	0.210709	0.933311
302	H	0.975875	0.303443	0.928819
303	H	0.816521	0.985238	0.933747
304	H	0.723826	0.976275	0.929261
305	H	0.710409	0.024339	0.733938
306	H	0.803598	0.032195	0.738571
307	C	0.98929	0.37257	0.994836
308	C	0.370594	0.039243	0.999637
309	C	0.037367	0.656525	0.999733
310	C	0.654474	0.990717	0.994956
311	H	0.956711	0.38417	0.979237
312	H	0.382312	0.073953	0.988208
313	H	0.07215	0.644933	0.988417
314	H	0.64285	0.958127	0.979374
315	C	0.01756	0.459242	0.005696
316	C	0.015381	0.486833	0.963275
317	C	0.008401	0.542353	0.963158
318	C	0.006797	0.57031	0.672077
319	C	0.010016	0.542205	0.713549
320	C	0.015434	0.487656	0.713696
321	C	0.003187	0.566562	0.919601
322	N	0.007018	0.538242	0.880629
323	C	0.015934	0.486396	0.881449
324	H	0.017346	0.468607	0.744514
325	H	0.008621	0.561476	0.744288
326	O	0.992717	0.617772	0.913631
327	N	0.019911	0.461208	0.922173
328	H	0.018976	0.466505	0.851173
329	H	0.026627	0.423918	0.92097
330	N	0.022001	0.407268	0.008899
331	N	0.002022	0.622191	0.675174
332	C	0.567818	0.019065	0.00571
333	C	0.540207	0.016762	0.963299
334	C	0.484667	0.009883	0.96322
335	C	0.456717	0.008518	0.672146
336	C	0.48484	0.011845	0.713604
337	C	0.539407	0.017146	0.71372
338	C	0.460431	0.004513	0.919684
339	N	0.488749	0.008144	0.880695
340	C	0.54062	0.016986	0.881473
341	H	0.558469	0.019169	0.744531
342	H	0.465576	0.01062	0.744349
343	O	0.409195	0.994072	0.913758
344	N	0.565834	0.021089	0.92218
345	H	0.560509	0.019885	0.851187
346	H	0.603144	0.027739	0.920949
347	N	0.619799	0.023477	0.008906
348	N	0.404822	0.0039	0.675276
