data_C189H126N18_2018-02-15_10:41:43
#******************************************
#
# CIF file created by Zeo++
# Zeo++ is an open source package to
# analyze microporous materials
#
#*******************************************

_cell_length_a		29.9209   
_cell_length_b		29.9209   
_cell_length_c		29.8018   
_cell_angle_alpha		90   
_cell_angle_beta		90   
_cell_angle_gamma		120   

_symmetry_space_group_name_H-M		'P1'
_symmetry_Int_Tables_number		1
_symmetry_cell_setting		Monoclinic

loop_
_symmetry_equiv_pos_as_xyz
'+x,+y,+z'

loop_
_atom_site_label
_atom_site_type_symbol
_atom_site_fract_x
_atom_site_fract_y
_atom_site_fract_z
1	C	0.031778	0.516721	0.049063
2	C	0.058582	0.530124	0.007484
3	N	0.030648	0.516157	0.302205
4	C	0.059418	0.530541	0.092752
5	H	0.033014	0.517338	0.121306
6	C	0.031778	0.516721	0.382396
7	C	0.058582	0.530124	0.340818
8	N	0.030648	0.516157	0.635538
9	C	0.059418	0.530541	0.426085
10	H	0.033014	0.517338	0.45464
11	C	0.031778	0.516721	0.715732
12	C	0.058582	0.530124	0.67415
13	N	0.030648	0.516157	0.96887
14	C	0.059418	0.530541	0.75942
15	H	0.033014	0.517338	0.787972
16	H	0.083714	0.57237	0.095263
17	H	0.083713	0.513005	0.095264
18	H	0.083714	0.57237	0.428595
19	H	0.083713	0.513005	0.428598
20	H	0.083714	0.57237	0.76193
21	H	0.083713	0.513005	0.76193
22	C	0.281937	0.641801	0.001211
23	C	0.311723	0.616793	0.001124
24	C	0.366516	0.641801	0.001187
25	C	0.391523	0.696593	0.001127
26	C	0.366515	0.726379	0.001211
27	C	0.311723	0.696593	0.001197
28	C	0.394965	0.613347	0.001603
29	C	0.369854	0.558257	0.002046
30	C	0.396785	0.530861	0.003234
31	C	0.451004	0.557308	0.003988
32	C	0.47745	0.611526	0.003238
33	C	0.450057	0.638459	0.002046
34	C	0.225034	0.613347	0.001624
35	C	0.195055	0.558257	0.002077
36	C	0.140729	0.530865	0.003248
37	C	0.112954	0.557308	0.003979
38	C	0.140726	0.611526	0.003214
39	C	0.195053	0.638459	0.00203
40	C	0.394965	0.783278	0.00163
41	C	0.369855	0.81326	0.00203
42	C	0.396786	0.867586	0.003211
43	C	0.451003	0.895357	0.003992
44	C	0.477451	0.867586	0.003254
45	C	0.450058	0.81326	0.002077
46	H	0.121576	0.491343	0.004174
47	H	0.211569	0.535724	0.001976
48	H	0.121574	0.631894	0.004087
49	H	0.211567	0.677506	0.001835
50	H	0.330808	0.796747	0.001842
51	H	0.376418	0.886739	0.004094
52	H	0.472588	0.796743	0.001969
53	H	0.516971	0.886739	0.004174
54	H	0.472589	0.677506	0.001905
55	H	0.516971	0.631894	0.004135
56	H	0.376418	0.491343	0.004125
57	H	0.330806	0.535724	0.001892
58	H	0.292378	0.578105	0.000966
59	H	0.29238	0.715936	0.001171
60	H	0.430208	0.715936	0.000976
61	C	0.728037	0.364849	0.00165
62	C	0.698253	0.389858	0.001597
63	C	0.643464	0.364849	0.00164
64	C	0.618455	0.310059	0.001597
65	C	0.643463	0.280277	0.00165
66	C	0.698256	0.310059	0.001624
67	C	0.615015	0.393297	0.001919
68	C	0.640133	0.44839	0.002238
69	C	0.613196	0.47579	0.00306
70	C	0.558977	0.449336	0.003482
71	C	0.532523	0.395118	0.003076
72	C	0.559923	0.368183	0.002244
73	C	0.784933	0.393297	0.001929
74	C	0.814913	0.44839	0.002254
75	C	0.869247	0.47579	0.003066
76	C	0.897011	0.449336	0.003471
77	C	0.869246	0.395114	0.003056
78	C	0.814911	0.368182	0.002238
79	C	0.615014	0.22338	0.001926
80	C	0.64013	0.193401	0.002234
81	C	0.613194	0.139067	0.00306
82	C	0.558974	0.111301	0.003456
83	C	0.532521	0.139066	0.003053
84	C	0.559922	0.193401	0.002244
85	H	0.888405	0.515316	0.003767
86	H	0.798397	0.470924	0.002231
87	H	0.888407	0.374749	0.003729
88	H	0.798396	0.329134	0.00217
89	H	0.679179	0.209915	0.002191
90	H	0.633562	0.119906	0.003736
91	H	0.537389	0.209916	0.002217
92	H	0.492995	0.119906	0.003747
93	H	0.537388	0.329136	0.002201
94	H	0.492995	0.374751	0.003756
95	H	0.633565	0.51532	0.003738
96	H	0.679179	0.470924	0.002181
97	H	0.717599	0.428543	0.001469
98	H	0.717594	0.290717	0.001536
99	H	0.579771	0.290717	0.001462
100	C	0.531825	0.476489	0.006183
101	C	0.518878	0.489437	0.047772
102	C	0.491594	0.516721	0.049071
103	C	0.478193	0.530124	0.007492
104	N	0.492161	0.516157	0.302213
105	H	0.529336	0.478974	0.076927
106	N	0.517412	0.490907	0.301505
107	C	0.47777	0.530537	0.09276
108	H	0.490972	0.517335	0.121314
109	H	0.435941	0.513005	0.095271
110	H	0.495307	0.57237	0.095273
111	C	0.531822	0.056996	0.006167
112	C	0.518885	0.03111	0.047759
113	C	0.491601	0.976542	0.049065
114	C	0.478192	0.949732	0.00749
115	N	0.49215	0.977661	0.302207
116	H	0.529351	0.052034	0.076911
117	N	0.5174	0.028159	0.301492
118	C	0.477787	0.94891	0.092757
119	H	0.490992	0.975319	0.121308
120	H	0.495321	0.924613	0.095271
121	H	0.435955	0.924613	0.095272
122	C	0.951315	0.476489	0.006175
123	C	0.97721	0.489437	0.047764
124	H	0.956291	0.478974	0.076919
125	N	0.980148	0.490907	0.301496
126	C	0.281937	0.641801	0.334544
127	C	0.311723	0.616793	0.334456
128	C	0.366516	0.641801	0.33452
129	C	0.391523	0.696593	0.334459
130	C	0.366515	0.726379	0.334543
131	C	0.311723	0.696593	0.33453
132	C	0.394965	0.613347	0.334938
133	C	0.369854	0.558257	0.335379
134	C	0.396785	0.530861	0.336567
135	C	0.451004	0.557308	0.337322
136	C	0.47745	0.611526	0.33657
137	C	0.450057	0.638459	0.335379
138	C	0.225034	0.613347	0.334957
139	C	0.195055	0.558257	0.33541
140	C	0.140729	0.530865	0.33658
141	C	0.112954	0.557308	0.337312
142	C	0.140726	0.611526	0.336547
143	C	0.195053	0.638459	0.335362
144	C	0.394965	0.783278	0.334962
145	C	0.369855	0.81326	0.335361
146	C	0.396786	0.867586	0.336543
147	C	0.451003	0.895357	0.337325
148	C	0.477451	0.867586	0.336587
149	C	0.450058	0.81326	0.335408
150	H	0.121576	0.491343	0.337506
151	H	0.211569	0.535724	0.33531
152	H	0.121574	0.631894	0.337419
153	H	0.211567	0.677506	0.33517
154	H	0.330808	0.796747	0.335173
155	H	0.376418	0.886739	0.337429
156	H	0.472588	0.796743	0.335301
157	H	0.516971	0.886739	0.337506
158	H	0.472589	0.677506	0.335237
159	H	0.516971	0.631894	0.337469
160	H	0.376418	0.491343	0.337459
161	H	0.330806	0.535724	0.335225
162	H	0.292378	0.578105	0.3343
163	H	0.29238	0.715936	0.334504
164	H	0.430208	0.715936	0.334309
165	C	0.728037	0.364849	0.334985
166	C	0.698253	0.389858	0.33493
167	C	0.643464	0.364849	0.334974
168	C	0.618455	0.310059	0.334928
169	C	0.643463	0.280277	0.334983
170	C	0.698256	0.310059	0.334955
171	C	0.615015	0.393297	0.335251
172	C	0.640133	0.44839	0.33557
173	C	0.613196	0.47579	0.336392
174	C	0.558977	0.449336	0.336815
175	C	0.532523	0.395118	0.336409
176	C	0.559923	0.368183	0.33558
177	C	0.784933	0.393297	0.33526
178	C	0.814913	0.44839	0.335587
179	C	0.869247	0.47579	0.336402
180	C	0.897011	0.449336	0.336805
181	C	0.869246	0.395114	0.336389
182	C	0.814911	0.368182	0.33557
183	C	0.615014	0.22338	0.33526
184	C	0.64013	0.193401	0.335567
185	C	0.613194	0.139067	0.336392
186	C	0.558974	0.111301	0.336788
187	C	0.532521	0.139066	0.336386
188	C	0.559922	0.193401	0.335577
189	H	0.888405	0.515316	0.3371
190	H	0.798397	0.470924	0.335563
191	H	0.888407	0.374749	0.337063
192	H	0.798396	0.329134	0.335504
193	H	0.679179	0.209915	0.335524
194	H	0.633562	0.119906	0.33707
195	H	0.537389	0.209916	0.33555
196	H	0.492995	0.119906	0.33708
197	H	0.537388	0.329136	0.335535
198	H	0.492995	0.374751	0.33709
199	H	0.633565	0.51532	0.33707
200	H	0.679179	0.470924	0.335512
201	H	0.717599	0.428543	0.334803
202	H	0.717594	0.290717	0.334871
203	H	0.579771	0.290717	0.334797
204	C	0.531825	0.476489	0.339516
205	C	0.518878	0.489437	0.381104
206	C	0.491594	0.516721	0.382406
207	C	0.478193	0.530124	0.340825
208	N	0.492161	0.516157	0.635545
209	H	0.529336	0.478974	0.41026
210	N	0.517412	0.490907	0.634837
211	C	0.47777	0.530537	0.426095
212	H	0.490972	0.517335	0.454647
213	H	0.435941	0.513005	0.428605
214	H	0.495307	0.57237	0.428608
215	C	0.531822	0.056996	0.339499
216	C	0.518885	0.03111	0.381094
217	C	0.491601	0.976542	0.3824
218	C	0.478192	0.949732	0.340822
219	N	0.49215	0.977661	0.635542
220	H	0.529351	0.052034	0.410243
221	N	0.5174	0.028159	0.634827
222	C	0.477787	0.94891	0.426091
223	H	0.490992	0.975319	0.45464
224	H	0.495321	0.924613	0.428605
225	H	0.435955	0.924613	0.428605
226	C	0.951315	0.476489	0.33951
227	C	0.97721	0.489437	0.381098
228	H	0.956291	0.478974	0.410254
229	N	0.980148	0.490907	0.63483
230	C	0.281937	0.641801	0.667879
231	C	0.311723	0.616793	0.667788
232	C	0.366516	0.641801	0.667852
233	C	0.391523	0.696593	0.667792
234	C	0.366515	0.726379	0.667875
235	C	0.311723	0.696593	0.667862
236	C	0.394965	0.613347	0.668271
237	C	0.369854	0.558257	0.668711
238	C	0.396785	0.530861	0.669899
239	C	0.451004	0.557308	0.670654
240	C	0.47745	0.611526	0.669905
241	C	0.450057	0.638459	0.668714
242	C	0.225034	0.613347	0.668291
243	C	0.195055	0.558257	0.668744
244	C	0.140729	0.530865	0.669916
245	C	0.112954	0.557308	0.670647
246	C	0.140726	0.611526	0.669879
247	C	0.195053	0.638459	0.668694
248	C	0.394965	0.783278	0.668295
249	C	0.369855	0.81326	0.668694
250	C	0.396786	0.867586	0.669879
251	C	0.451003	0.895357	0.67066
252	C	0.477451	0.867586	0.669919
253	C	0.450058	0.81326	0.668741
254	H	0.121576	0.491343	0.670842
255	H	0.211569	0.535724	0.668644
256	H	0.121574	0.631894	0.670754
257	H	0.211567	0.677506	0.668503
258	H	0.330808	0.796747	0.668506
259	H	0.376418	0.886739	0.670761
260	H	0.472588	0.796743	0.668634
261	H	0.516971	0.886739	0.670842
262	H	0.472589	0.677506	0.66857
263	H	0.516971	0.631894	0.670801
264	H	0.376418	0.491343	0.670791
265	H	0.330806	0.535724	0.66856
266	H	0.292378	0.578105	0.667634
267	H	0.29238	0.715936	0.667838
268	H	0.430208	0.715936	0.667644
269	C	0.728037	0.364849	0.668318
270	C	0.698253	0.389858	0.668265
271	C	0.643464	0.364849	0.668308
272	C	0.618455	0.310059	0.668261
273	C	0.643463	0.280277	0.668318
274	C	0.698256	0.310059	0.668288
275	C	0.615015	0.393297	0.668583
276	C	0.640133	0.44839	0.668906
277	C	0.613196	0.47579	0.669724
278	C	0.558977	0.449336	0.670147
279	C	0.532523	0.395118	0.669741
280	C	0.559923	0.368183	0.668912
281	C	0.784933	0.393297	0.668593
282	C	0.814913	0.44839	0.668919
283	C	0.869247	0.47579	0.669734
284	C	0.897011	0.449336	0.670137
285	C	0.869246	0.395114	0.669721
286	C	0.814911	0.368182	0.668902
287	C	0.615014	0.22338	0.668593
288	C	0.64013	0.193401	0.668902
289	C	0.613194	0.139067	0.669728
290	C	0.558974	0.111301	0.670124
291	C	0.532521	0.139066	0.669718
292	C	0.559922	0.193401	0.668912
293	H	0.888405	0.515316	0.670436
294	H	0.798397	0.470924	0.668895
295	H	0.888407	0.374749	0.670395
296	H	0.798396	0.329134	0.668838
297	H	0.679179	0.209915	0.668859
298	H	0.633562	0.119906	0.670402
299	H	0.537389	0.209916	0.668885
300	H	0.492995	0.119906	0.670416
301	H	0.537388	0.329136	0.668869
302	H	0.492995	0.374751	0.670422
303	H	0.633565	0.51532	0.670405
304	H	0.679179	0.470924	0.668845
305	H	0.717599	0.428543	0.668137
306	H	0.717594	0.290717	0.668204
307	H	0.579771	0.290717	0.66813
308	C	0.531825	0.476489	0.672852
309	C	0.518878	0.489437	0.71444
310	C	0.491594	0.516721	0.715738
311	C	0.478193	0.530124	0.67416
312	N	0.492161	0.516157	0.968881
313	H	0.529336	0.478974	0.743596
314	N	0.517412	0.490907	0.968173
315	C	0.47777	0.530537	0.759427
316	H	0.490972	0.517335	0.787982
317	H	0.435941	0.513005	0.761937
318	H	0.495307	0.57237	0.76194
319	C	0.531822	0.056996	0.672835
320	C	0.518885	0.03111	0.714426
321	C	0.491601	0.976542	0.715732
322	C	0.478192	0.949732	0.674157
323	N	0.49215	0.977661	0.968874
324	H	0.529351	0.052034	0.743579
325	N	0.5174	0.028159	0.968159
326	C	0.477787	0.94891	0.759424
327	H	0.490992	0.975319	0.787975
328	H	0.495321	0.924613	0.761937
329	H	0.435955	0.924613	0.76194
330	C	0.951315	0.476489	0.672842
331	C	0.97721	0.489437	0.71443
332	H	0.956291	0.478974	0.743586
333	N	0.980148	0.490907	0.968162
