data_C180H108N36O18_2018-02-15_10:42:29
#******************************************
#
# CIF file created by Zeo++
# Zeo++ is an open source package to
# analyze microporous materials
#
#*******************************************

_cell_length_a		29.4377   
_cell_length_b		29.4378   
_cell_length_c		29.9732   
_cell_angle_alpha		90   
_cell_angle_beta		90   
_cell_angle_gamma		120   

_symmetry_space_group_name_H-M		'P1'
_symmetry_Int_Tables_number		1
_symmetry_cell_setting		Monoclinic

loop_
_symmetry_equiv_pos_as_xyz
'+x,+y,+z'

loop_
_atom_site_label
_atom_site_type_symbol
_atom_site_fract_x
_atom_site_fract_y
_atom_site_fract_z
1	C	0.361031	0.721291	0.001263
2	N	0.386529	0.693465	0.00131
3	C	0.36116	0.640138	0.001246
4	N	0.307833	0.614634	0.001315
5	C	0.279879	0.640009	0.001266
6	N	0.307705	0.693335	0.001334
7	C	0.389219	0.61223	0.001856
8	C	0.444748	0.639075	0.004089
9	C	0.472441	0.611622	0.005485
10	C	0.445609	0.5562	0.004901
11	C	0.390329	0.529143	0.001607
12	C	0.362663	0.556659	0.000438
13	C	0.388945	0.777258	0.001892
14	C	0.444512	0.806257	0.000398
15	C	0.472044	0.861439	0.001576
16	C	0.445003	0.889665	0.004999
17	C	0.389583	0.861093	0.005657
18	C	0.362114	0.805947	0.004229
19	C	0.223913	0.611971	0.001903
20	C	0.194926	0.638558	0.000537
21	C	0.139744	0.610919	0.001724
22	C	0.111502	0.555643	0.005018
23	C	0.140055	0.528774	0.005548
24	C	0.195202	0.55644	0.004112
25	H	0.512189	0.880816	0.00093
26	H	0.465868	0.787578	0.998517
27	H	0.368588	0.880204	0.00683
28	H	0.322024	0.787076	0.005084
29	H	0.213616	0.678599	0.998744
30	H	0.120382	0.631705	0.001166
31	H	0.214065	0.535211	0.00487
32	H	0.120934	0.488667	0.006621
33	H	0.322625	0.535293	0.998633
34	H	0.369566	0.489	0.001003
35	H	0.512548	0.632635	0.006559
36	H	0.465961	0.679167	0.004877
37	C	0.641054	0.279746	0.002019
38	N	0.614765	0.3068	0.002035
39	C	0.639618	0.360101	0.002011
40	N	0.692962	0.386388	0.00199
41	C	0.721411	0.361534	0.001975
42	N	0.694355	0.30819	0.001997
43	C	0.610953	0.387302	0.002126
44	C	0.557099	0.361603	0.990573
45	C	0.528919	0.388624	0.990319
46	C	0.553253	0.442236	0.002327
47	C	0.60685	0.467744	0.01456
48	C	0.635273	0.440996	0.013975
49	C	0.613856	0.223883	0.002147
50	C	0.560237	0.194517	0.014221
51	C	0.533489	0.139344	0.014811
52	C	0.558935	0.111257	0.002386
53	C	0.612475	0.140531	0.990153
54	C	0.639494	0.19573	0.990393
55	C	0.777274	0.390204	0.002069
56	C	0.806657	0.365919	0.013998
57	C	0.861831	0.394358	0.014593
58	C	0.889905	0.447939	0.002307
59	C	0.860618	0.472223	0.990179
60	C	0.805418	0.444032	0.990443
61	H	0.49471	0.119854	0.023677
62	H	0.540024	0.212955	0.023392
63	H	0.63287	0.122009	0.981902
64	H	0.678182	0.215093	0.981305
65	H	0.788233	0.327244	0.023083
66	H	0.881332	0.375053	0.023374
67	H	0.786046	0.46339	0.981478
68	H	0.879126	0.511182	0.982085
69	H	0.673965	0.461256	0.023003
70	H	0.626192	0.506577	0.02325
71	H	0.489961	0.368185	0.982215
72	H	0.537722	0.322863	0.981652
73	C	0.473284	0.528151	0.006445
74	N	0.461126	0.490122	0.308634
75	C	0.484879	0.460907	0.305706
76	C	0.525149	0.469999	0.002848
77	N	0.536805	0.507714	0.034173
78	C	0.513383	0.537412	0.037588
79	H	0.474085	0.4339	0.280687
80	C	0.526222	0.571294	0.073291
81	O	0.573104	0.599226	0.080773
82	O	0.496251	0.54932	0.109236
83	C	0.476247	0.580626	0.128422
84	H	0.452522	0.55975	0.157351
85	H	0.451226	0.586498	0.104961
86	H	0.507947	0.618694	0.139711
87	C	0.473064	0.94538	0.006555
88	N	0.510878	0.971245	0.308577
89	C	0.540068	0.024211	0.305626
90	C	0.531179	0.05539	0.002924
91	N	0.493677	0.029337	0.034412
92	C	0.464011	0.976223	0.037849
93	H	0.566905	0.040423	0.280483
94	C	0.430386	0.955175	0.073669
95	O	0.402321	0.974046	0.081047
96	O	0.451218	0.946314	0.109913
97	C	0.419107	0.894768	0.128433
98	H	0.439158	0.891254	0.15767
99	H	0.41352	0.864141	0.104785
100	H	0.380904	0.888578	0.139107
101	C	0.055784	0.528005	0.006581
102	N	0.029934	0.540091	0.308695
103	C	0.976968	0.516336	0.305742
104	C	0.945772	0.476079	0.002889
105	N	0.971812	0.464492	0.034287
106	C	0.024924	0.487992	0.037779
107	H	0.960775	0.527037	0.280637
108	C	0.045871	0.475114	0.073433
109	O	0.026801	0.428385	0.081764
110	O	0.054455	0.505004	0.109596
111	C	0.106134	0.525201	0.12807
112	H	0.109335	0.548732	0.157245
113	H	0.136549	0.55045	0.104357
114	H	0.112926	0.493597	0.138824
115	C	0.361031	0.721291	0.334596
116	N	0.386529	0.693465	0.334643
117	C	0.36116	0.640138	0.334579
118	N	0.307833	0.614634	0.334649
119	C	0.279879	0.640009	0.334599
120	N	0.307705	0.693335	0.334666
121	C	0.389219	0.61223	0.33519
122	C	0.444748	0.639075	0.337422
123	C	0.472441	0.611622	0.338816
124	C	0.445609	0.5562	0.338233
125	C	0.390329	0.529143	0.33494
126	C	0.362663	0.556659	0.333772
127	C	0.388945	0.777258	0.335227
128	C	0.444512	0.806257	0.333732
129	C	0.472044	0.861439	0.33491
130	C	0.445003	0.889665	0.338333
131	C	0.389583	0.861093	0.33899
132	C	0.362114	0.805947	0.337562
133	C	0.223913	0.611971	0.335237
134	C	0.194926	0.638558	0.333869
135	C	0.139744	0.610919	0.335056
136	C	0.111502	0.555643	0.338353
137	C	0.140055	0.528774	0.33888
138	C	0.195202	0.55644	0.337445
139	H	0.512189	0.880816	0.334262
140	H	0.465868	0.787578	0.33185
141	H	0.368588	0.880204	0.340164
142	H	0.322024	0.787076	0.338416
143	H	0.213616	0.678599	0.332079
144	H	0.120382	0.631705	0.334499
145	H	0.214065	0.535211	0.338203
146	H	0.120934	0.488667	0.339954
147	H	0.322625	0.535293	0.331968
148	H	0.369566	0.489	0.334336
149	H	0.512548	0.632635	0.339891
150	H	0.465961	0.679167	0.338209
151	C	0.641054	0.279746	0.335353
152	N	0.614765	0.3068	0.335367
153	C	0.639618	0.360101	0.335343
154	N	0.692962	0.386388	0.335323
155	C	0.721411	0.361534	0.335307
156	N	0.694355	0.30819	0.33533
157	C	0.610953	0.387302	0.33546
158	C	0.557099	0.361603	0.323907
159	C	0.528919	0.388624	0.323654
160	C	0.553253	0.442236	0.33566
161	C	0.60685	0.467744	0.347895
162	C	0.635273	0.440996	0.347307
163	C	0.613856	0.223883	0.33548
164	C	0.560237	0.194517	0.347554
165	C	0.533489	0.139344	0.348145
166	C	0.558935	0.111257	0.33572
167	C	0.612475	0.140531	0.323487
168	C	0.639494	0.19573	0.323728
169	C	0.777274	0.390204	0.3354
170	C	0.806657	0.365919	0.347331
171	C	0.861831	0.394358	0.347925
172	C	0.889905	0.447939	0.33564
173	C	0.860618	0.472223	0.323514
174	C	0.805418	0.444032	0.323777
175	H	0.49471	0.119854	0.357009
176	H	0.540024	0.212955	0.356726
177	H	0.63287	0.122009	0.315236
178	H	0.678182	0.215093	0.31464
179	H	0.788233	0.327244	0.356416
180	H	0.881332	0.375053	0.356706
181	H	0.786046	0.46339	0.314812
182	H	0.879126	0.511182	0.31542
183	H	0.673965	0.461256	0.356335
184	H	0.626192	0.506577	0.356582
185	H	0.489961	0.368185	0.31555
186	H	0.537722	0.322863	0.314984
187	C	0.473284	0.528151	0.339777
188	N	0.461126	0.490122	0.641968
189	C	0.484879	0.460907	0.639038
190	C	0.525149	0.469999	0.336181
191	N	0.536805	0.507714	0.367505
192	C	0.513383	0.537412	0.370922
193	H	0.474085	0.4339	0.614019
194	C	0.526222	0.571294	0.406624
195	O	0.573104	0.599226	0.414107
196	O	0.496251	0.54932	0.442569
197	C	0.476247	0.580626	0.461756
198	H	0.452522	0.55975	0.490682
199	H	0.451226	0.586498	0.438295
200	H	0.507947	0.618694	0.473043
201	C	0.473064	0.94538	0.339887
202	N	0.510878	0.971245	0.641911
203	C	0.540068	0.024211	0.638958
204	C	0.531179	0.05539	0.336258
205	N	0.493677	0.029337	0.367746
206	C	0.464011	0.976223	0.371182
207	H	0.566905	0.040423	0.613816
208	C	0.430386	0.955175	0.407001
209	O	0.402321	0.974046	0.414381
210	O	0.451218	0.946314	0.443247
211	C	0.419107	0.894768	0.461766
212	H	0.439158	0.891254	0.491003
213	H	0.41352	0.864141	0.438119
214	H	0.380904	0.888578	0.472439
215	C	0.055784	0.528005	0.339914
216	N	0.029934	0.540091	0.642028
217	C	0.976968	0.516336	0.639075
218	C	0.945772	0.476079	0.336221
219	N	0.971812	0.464492	0.367619
220	C	0.024924	0.487992	0.371112
221	H	0.960775	0.527037	0.613969
222	C	0.045871	0.475114	0.406767
223	O	0.026801	0.428385	0.415098
224	O	0.054455	0.505004	0.44293
225	C	0.106134	0.525201	0.461403
226	H	0.109335	0.548732	0.490579
227	H	0.136549	0.55045	0.437688
228	H	0.112926	0.493597	0.472156
229	C	0.361031	0.721291	0.667928
230	N	0.386529	0.693465	0.667974
231	C	0.36116	0.640138	0.667911
232	N	0.307833	0.614634	0.667981
233	C	0.279879	0.640009	0.667931
234	N	0.307705	0.693335	0.668001
235	C	0.389219	0.61223	0.668521
236	C	0.444748	0.639075	0.670757
237	C	0.472441	0.611622	0.672151
238	C	0.445609	0.5562	0.671568
239	C	0.390329	0.529143	0.668271
240	C	0.362663	0.556659	0.667107
241	C	0.388945	0.777258	0.668558
242	C	0.444512	0.806257	0.667063
243	C	0.472044	0.861439	0.668241
244	C	0.445003	0.889665	0.671664
245	C	0.389583	0.861093	0.672322
246	C	0.362114	0.805947	0.670894
247	C	0.223913	0.611971	0.668568
248	C	0.194926	0.638558	0.667204
249	C	0.139744	0.610919	0.668388
250	C	0.111502	0.555643	0.671684
251	C	0.140055	0.528774	0.672215
252	C	0.195202	0.55644	0.670777
253	H	0.512189	0.880816	0.667597
254	H	0.465868	0.787578	0.665182
255	H	0.368588	0.880204	0.673496
256	H	0.322024	0.787076	0.671751
257	H	0.213616	0.678599	0.665412
258	H	0.120382	0.631705	0.667831
259	H	0.214065	0.535211	0.671534
260	H	0.120934	0.488667	0.673286
261	H	0.322625	0.535293	0.665302
262	H	0.369566	0.489	0.667671
263	H	0.512548	0.632635	0.673226
264	H	0.465961	0.679167	0.671544
265	C	0.641054	0.279746	0.668685
266	N	0.614765	0.3068	0.668702
267	C	0.639618	0.360101	0.668678
268	N	0.692962	0.386388	0.668655
269	C	0.721411	0.361534	0.668642
270	N	0.694355	0.30819	0.668662
271	C	0.610953	0.387302	0.668792
272	C	0.557099	0.361603	0.657241
273	C	0.528919	0.388624	0.656988
274	C	0.553253	0.442236	0.668992
275	C	0.60685	0.467744	0.681226
276	C	0.635273	0.440996	0.680639
277	C	0.613856	0.223883	0.668812
278	C	0.560237	0.194517	0.680886
279	C	0.533489	0.139344	0.681476
280	C	0.558935	0.111257	0.669052
281	C	0.612475	0.140531	0.656821
282	C	0.639494	0.19573	0.657061
283	C	0.777274	0.390204	0.668735
284	C	0.806657	0.365919	0.680662
285	C	0.861831	0.394358	0.68126
286	C	0.889905	0.447939	0.668972
287	C	0.860618	0.472223	0.656848
288	C	0.805418	0.444032	0.657111
289	H	0.49471	0.119854	0.690344
290	H	0.540024	0.212955	0.690057
291	H	0.63287	0.122009	0.64857
292	H	0.678182	0.215093	0.647973
293	H	0.788233	0.327244	0.689747
294	H	0.881332	0.375053	0.690041
295	H	0.786046	0.46339	0.648147
296	H	0.879126	0.511182	0.648754
297	H	0.673965	0.461256	0.68967
298	H	0.626192	0.506577	0.689914
299	H	0.489961	0.368185	0.648884
300	H	0.537722	0.322863	0.648317
301	C	0.473284	0.528151	0.673109
302	N	0.461126	0.490122	0.975299
303	C	0.484879	0.460907	0.972373
304	C	0.525149	0.469999	0.669516
305	N	0.536805	0.507714	0.70084
306	C	0.513383	0.537412	0.704253
307	H	0.474085	0.4339	0.947354
308	C	0.526222	0.571294	0.739955
309	O	0.573104	0.599226	0.747439
310	O	0.496251	0.54932	0.775901
311	C	0.476247	0.580626	0.795088
312	H	0.452522	0.55975	0.824017
313	H	0.451226	0.586498	0.771627
314	H	0.507947	0.618694	0.806378
315	C	0.473064	0.94538	0.673219
316	N	0.510878	0.971245	0.975243
317	C	0.540068	0.024211	0.972293
318	C	0.531179	0.05539	0.669589
319	N	0.493677	0.029337	0.701077
320	C	0.464011	0.976223	0.704514
321	H	0.566905	0.040423	0.947147
322	C	0.430386	0.955175	0.740336
323	O	0.402321	0.974046	0.747712
324	O	0.451218	0.946314	0.776578
325	C	0.419107	0.894768	0.795098
326	H	0.439158	0.891254	0.824338
327	H	0.41352	0.864141	0.77145
328	H	0.380904	0.888578	0.805771
329	C	0.055784	0.528005	0.673246
330	N	0.029934	0.540091	0.975359
331	C	0.976968	0.516336	0.972407
332	C	0.945772	0.476079	0.669556
333	N	0.971812	0.464492	0.700954
334	C	0.024924	0.487992	0.704444
335	H	0.960775	0.527037	0.947304
336	C	0.045871	0.475114	0.740099
337	O	0.026801	0.428385	0.74843
338	O	0.054455	0.505004	0.776261
339	C	0.106134	0.525201	0.794738
340	H	0.109335	0.548732	0.82391
341	H	0.136549	0.55045	0.771023
342	H	0.112926	0.493597	0.805491
