data_C162H162N36_2018-02-15_10:34:04
#******************************************
#
# CIF file created by Zeo++
# Zeo++ is an open source package to
# analyze microporous materials
#
#*******************************************

_cell_length_a		29.0617   
_cell_length_b		29.0617   
_cell_length_c		30.0638   
_cell_angle_alpha		90   
_cell_angle_beta		90   
_cell_angle_gamma		120   

_symmetry_space_group_name_H-M		'P1'
_symmetry_Int_Tables_number		1
_symmetry_cell_setting		Monoclinic

loop_
_symmetry_equiv_pos_as_xyz
'+x,+y,+z'

loop_
_atom_site_label
_atom_site_type_symbol
_atom_site_fract_x
_atom_site_fract_y
_atom_site_fract_z
1	C	0.347314	0.626533	0.970324
2	C	0.292974	0.611435	0.970061
3	C	0.27704	0.649979	0.970311
4	C	0.316282	0.704318	0.970065
5	C	0.37076	0.720255	0.970314
6	C	0.385856	0.681011	0.970065
7	H	0.305059	0.732544	0.969542
8	H	0.425305	0.692231	0.969529
9	H	0.264748	0.571988	0.969536
10	N	0.364644	0.58891	0.968661
11	H	0.33664	0.554367	0.953633
12	N	0.408392	0.775205	0.968664
13	H	0.442947	0.781737	0.953663
14	N	0.222088	0.632656	0.968678
15	H	0.215546	0.66066	0.953646
16	C	0.639338	0.362666	0.025276
17	C	0.695361	0.388027	0.025489
18	C	0.72119	0.357962	0.025305
19	C	0.690529	0.301939	0.025494
20	C	0.634633	0.27611	0.025284
21	C	0.609275	0.306771	0.025471
22	H	0.709067	0.279885	0.026146
23	H	0.568682	0.288233	0.026109
24	H	0.717416	0.428621	0.026148
25	N	0.611906	0.391231	0.026372
26	H	0.623246	0.414694	0.054371
27	N	0.60607	0.220113	0.02638
28	H	0.582585	0.207986	0.054365
29	N	0.777188	0.385394	0.026407
30	H	0.789313	0.374035	0.054394
31	C	0.410505	0.5482	0.009732
32	C	0.424778	0.534079	0.302526
33	N	0.454444	0.510136	0.302518
34	C	0.471786	0.497791	0.006763
35	C	0.459302	0.510863	0.048897
36	C	0.428271	0.535939	0.049396
37	H	0.418771	0.545951	0.079312
38	C	0.504673	0.475692	0.000434
39	C	0.486975	0.423904	0.316667
40	C	0.525321	0.407908	0.311453
41	C	0.579404	0.44238	0.321762
42	C	0.594113	0.493337	0.00485
43	N	0.556908	0.507867	0.010149
44	H	0.513652	0.370322	0.300314
45	H	0.632448	0.519473	0.013779
46	H	0.414087	0.542252	0.272515
47	C	0.43078	0.385133	0.30545
48	H	0.403781	0.400085	0.312248
49	H	0.417353	0.348905	0.324902
50	H	0.427733	0.375139	0.270161
51	C	0.475966	0.499075	0.092176
52	H	0.497715	0.477746	0.088551
53	H	0.440977	0.474615	0.112558
54	H	0.501432	0.536161	0.109783
55	C	0.618339	0.423662	0.319587
56	H	0.658937	0.457304	0.317661
57	H	0.611189	0.400037	0.956004
58	C	0.379723	0.576478	0.012416
59	H	0.404416	0.613505	0.030575
60	H	0.34372	0.552424	0.031989
61	C	0.449169	0.861767	0.009763
62	C	0.463413	0.890184	0.302568
63	N	0.487418	0.943799	0.302577
64	C	0.499782	0.973479	0.006828
65	C	0.486571	0.947895	0.048949
66	C	0.461415	0.891781	0.049433
67	H	0.451314	0.872256	0.079343
68	C	0.521821	0.028458	0.000486
69	C	0.57354	0.06256	0.316596
70	C	0.589476	0.116887	0.311367
71	C	0.554993	0.136464	0.321751
72	C	0.504103	0.1002	0.004949
73	N	0.48964	0.048488	0.010278
74	H	0.627027	0.142818	0.300169
75	H	0.477979	0.112386	0.013962
76	H	0.455207	0.87133	0.27255
77	C	0.61234	0.045189	0.30533
78	H	0.597456	0.003261	0.312165
79	H	0.648607	0.068057	0.32472
80	H	0.622249	0.05209	0.270022
81	C	0.498317	0.976332	0.092233
82	H	0.51975	0.019407	0.088622
83	H	0.522663	0.965707	0.112674
84	H	0.461205	0.96479	0.109772
85	C	0.573679	0.194111	0.319579
86	H	0.540017	0.201034	0.317631
87	H	0.597324	0.210609	0.956011
88	C	0.420803	0.802704	0.012426
89	H	0.383758	0.790415	0.030545
90	H	0.444785	0.790693	0.032032
91	C	0.135544	0.586852	0.009793
92	C	0.107118	0.572632	0.302604
93	N	0.053507	0.542979	0.302624
94	C	0.023841	0.525644	0.00688
95	C	0.049433	0.538116	0.048999
96	C	0.105541	0.569111	0.049471
97	H	0.125077	0.57858	0.079378
98	C	0.968849	0.492749	0.000569
99	C	0.934778	0.51039	0.316659
100	C	0.880447	0.472021	0.311415
101	C	0.860842	0.417952	0.321783
102	C	0.897086	0.403295	0.004973
103	N	0.948798	0.440528	0.010332
104	H	0.854532	0.483662	0.300214
105	H	0.884878	0.364984	0.013999
106	H	0.12596	0.583284	0.272582
107	C	0.952181	0.566573	0.3054
108	H	0.994106	0.593599	0.312262
109	H	0.929308	0.579982	0.324775
110	H	0.945314	0.569596	0.270087
111	C	0.021012	0.521444	0.092292
112	H	0.977938	0.499738	0.08869
113	H	0.031588	0.556429	0.112697
114	H	0.032615	0.49594	0.109864
115	C	0.803193	0.379002	0.319607
116	H	0.796255	0.338411	0.317654
117	H	0.786704	0.386159	0.956038
118	C	0.194607	0.617605	0.012445
119	H	0.206935	0.592899	0.030594
120	H	0.206593	0.653619	0.032015
121	C	0.347314	0.626533	0.303658
122	C	0.292974	0.611435	0.303395
123	C	0.27704	0.649979	0.303644
124	C	0.316282	0.704318	0.303399
125	C	0.37076	0.720255	0.303648
126	C	0.385856	0.681011	0.303397
127	H	0.305059	0.732544	0.302877
128	H	0.425305	0.692231	0.302864
129	H	0.264748	0.571988	0.30287
130	N	0.364644	0.58891	0.301995
131	H	0.33664	0.554367	0.286968
132	N	0.408392	0.775205	0.301999
133	H	0.442947	0.781737	0.286995
134	N	0.222088	0.632656	0.30201
135	H	0.215546	0.66066	0.286981
136	C	0.639338	0.362666	0.358608
137	C	0.695361	0.388027	0.358821
138	C	0.72119	0.357962	0.358638
139	C	0.690529	0.301939	0.358827
140	C	0.634633	0.27611	0.358618
141	C	0.609275	0.306771	0.358804
142	H	0.709067	0.279885	0.359479
143	H	0.568682	0.288233	0.359443
144	H	0.717416	0.428621	0.359479
145	N	0.611906	0.391231	0.359705
146	H	0.623246	0.414694	0.387703
147	N	0.60607	0.220113	0.359712
148	H	0.582585	0.207986	0.387699
149	N	0.777188	0.385394	0.359739
150	H	0.789313	0.374035	0.387726
151	C	0.410505	0.5482	0.343064
152	C	0.424778	0.534079	0.635858
153	N	0.454444	0.510136	0.635852
154	C	0.471786	0.497791	0.340097
155	C	0.459302	0.510863	0.382231
156	C	0.428271	0.535939	0.38273
157	H	0.418771	0.545951	0.412646
158	C	0.504673	0.475692	0.333767
159	C	0.486975	0.423904	0.650002
160	C	0.525321	0.407908	0.644786
161	C	0.579404	0.44238	0.655094
162	C	0.594113	0.493337	0.338184
163	N	0.556908	0.507867	0.343483
164	H	0.513652	0.370322	0.633646
165	H	0.632448	0.519473	0.347112
166	H	0.414087	0.542252	0.605849
167	C	0.43078	0.385133	0.638782
168	H	0.403781	0.400085	0.645581
169	H	0.417353	0.348905	0.658234
170	H	0.427733	0.375139	0.603494
171	C	0.475966	0.499075	0.425509
172	H	0.497715	0.477746	0.421883
173	H	0.440977	0.474615	0.445892
174	H	0.501432	0.536161	0.443118
175	C	0.618339	0.423662	0.652919
176	H	0.658937	0.457304	0.650993
177	H	0.611189	0.400037	0.28934
178	C	0.379723	0.576478	0.345748
179	H	0.404416	0.613505	0.363906
180	H	0.34372	0.552424	0.365323
181	C	0.449169	0.861767	0.343097
182	C	0.463413	0.890184	0.635902
183	N	0.487418	0.943799	0.635912
184	C	0.499782	0.973479	0.34016
185	C	0.486571	0.947895	0.382281
186	C	0.461415	0.891781	0.382766
187	H	0.451314	0.872256	0.412676
188	C	0.521821	0.028458	0.33382
189	C	0.57354	0.06256	0.649928
190	C	0.589476	0.116887	0.6447
191	C	0.554993	0.136464	0.655084
192	C	0.504103	0.1002	0.338281
193	N	0.48964	0.048488	0.34361
194	H	0.627027	0.142818	0.6335
195	H	0.477979	0.112386	0.347295
196	H	0.455207	0.87133	0.605882
197	C	0.61234	0.045189	0.638662
198	H	0.597456	0.003261	0.645498
199	H	0.648607	0.068057	0.658055
200	H	0.622249	0.05209	0.603354
201	C	0.498317	0.976332	0.425565
202	H	0.51975	0.019407	0.421956
203	H	0.522663	0.965707	0.446005
204	H	0.461205	0.96479	0.443105
205	C	0.573679	0.194111	0.652912
206	H	0.540017	0.201034	0.650963
207	H	0.597324	0.210609	0.289344
208	C	0.420803	0.802704	0.345758
209	H	0.383758	0.790415	0.363877
210	H	0.444785	0.790693	0.365363
211	C	0.135544	0.586852	0.343127
212	C	0.107118	0.572632	0.635938
213	N	0.053507	0.542979	0.635958
214	C	0.023841	0.525644	0.340213
215	C	0.049433	0.538116	0.382331
216	C	0.105541	0.569111	0.382803
217	H	0.125077	0.57858	0.412713
218	C	0.968849	0.492749	0.333904
219	C	0.934778	0.51039	0.649992
220	C	0.880447	0.472021	0.644746
221	C	0.860842	0.417952	0.655117
222	C	0.897086	0.403295	0.338308
223	N	0.948798	0.440528	0.343666
224	H	0.854532	0.483662	0.633547
225	H	0.884878	0.364984	0.347332
226	H	0.12596	0.583284	0.605915
227	C	0.952181	0.566573	0.638732
228	H	0.994106	0.593599	0.645594
229	H	0.929308	0.579982	0.658108
230	H	0.945314	0.569596	0.603421
231	C	0.021012	0.521444	0.425625
232	H	0.977938	0.499738	0.422023
233	H	0.031588	0.556429	0.446032
234	H	0.032615	0.49594	0.443198
235	C	0.803193	0.379002	0.652942
236	H	0.796255	0.338411	0.650986
237	H	0.786704	0.386159	0.289373
238	C	0.194607	0.617605	0.345778
239	H	0.206935	0.592899	0.363926
240	H	0.206593	0.653619	0.365347
241	C	0.347314	0.626533	0.636993
242	C	0.292974	0.611435	0.63673
243	C	0.27704	0.649979	0.636976
244	C	0.316282	0.704318	0.636733
245	C	0.37076	0.720255	0.636983
246	C	0.385856	0.681011	0.63673
247	H	0.305059	0.732544	0.636211
248	H	0.425305	0.692231	0.636198
249	H	0.264748	0.571988	0.636204
250	N	0.364644	0.58891	0.635326
251	H	0.33664	0.554367	0.620301
252	N	0.408392	0.775205	0.635333
253	H	0.442947	0.781737	0.620328
254	N	0.222088	0.632656	0.635343
255	H	0.215546	0.66066	0.620315
256	C	0.639338	0.362666	0.691942
257	C	0.695361	0.388027	0.692155
258	C	0.72119	0.357962	0.691972
259	C	0.690529	0.301939	0.692159
260	C	0.634633	0.27611	0.691949
261	C	0.609275	0.306771	0.692135
262	H	0.709067	0.279885	0.692811
263	H	0.568682	0.288233	0.692774
264	H	0.717416	0.428621	0.692814
265	N	0.611906	0.391231	0.693037
266	H	0.623246	0.414694	0.721037
267	N	0.60607	0.220113	0.693047
268	H	0.582585	0.207986	0.721031
269	N	0.777188	0.385394	0.693073
270	H	0.789313	0.374035	0.721061
271	C	0.410505	0.5482	0.676399
272	C	0.424778	0.534079	0.969193
273	N	0.454444	0.510136	0.969183
274	C	0.471786	0.497791	0.673428
275	C	0.459302	0.510863	0.715562
276	C	0.428271	0.535939	0.716061
277	H	0.418771	0.545951	0.745978
278	C	0.504673	0.475692	0.667099
279	C	0.486975	0.423904	0.983333
280	C	0.525321	0.407908	0.978121
281	C	0.579404	0.44238	0.988429
282	C	0.594113	0.493337	0.671516
283	N	0.556908	0.507867	0.676815
284	H	0.513652	0.370322	0.966981
285	H	0.632448	0.519473	0.680447
286	H	0.414087	0.542252	0.93918
287	C	0.43078	0.385133	0.972117
288	H	0.403781	0.400085	0.978912
289	H	0.417353	0.348905	0.991569
290	H	0.427733	0.375139	0.936825
291	C	0.475966	0.499075	0.758844
292	H	0.497715	0.477746	0.755218
293	H	0.440977	0.474615	0.779224
294	H	0.501432	0.536161	0.77645
295	C	0.618339	0.423662	0.986254
296	H	0.658937	0.457304	0.984328
297	H	0.611189	0.400037	0.622673
298	C	0.379723	0.576478	0.679083
299	H	0.404416	0.613505	0.697241
300	H	0.34372	0.552424	0.698655
301	C	0.449169	0.861767	0.676429
302	C	0.463413	0.890184	0.969233
303	N	0.487418	0.943799	0.969243
304	C	0.499782	0.973479	0.673495
305	C	0.486571	0.947895	0.715615
306	C	0.461415	0.891781	0.716098
307	H	0.451314	0.872256	0.746008
308	C	0.521821	0.028458	0.667152
309	C	0.57354	0.06256	0.983263
310	C	0.589476	0.116887	0.978034
311	C	0.554993	0.136464	0.988416
312	C	0.504103	0.1002	0.671616
313	N	0.48964	0.048488	0.676944
314	H	0.627027	0.142818	0.966835
315	H	0.477979	0.112386	0.68063
316	H	0.455207	0.87133	0.939217
317	C	0.61234	0.045189	0.971997
318	H	0.597456	0.003261	0.978833
319	H	0.648607	0.068057	0.991386
320	H	0.622249	0.05209	0.936689
321	C	0.498317	0.976332	0.7589
322	H	0.51975	0.019407	0.755288
323	H	0.522663	0.965707	0.77934
324	H	0.461205	0.96479	0.77644
325	C	0.573679	0.194111	0.986244
326	H	0.540017	0.201034	0.984298
327	H	0.597324	0.210609	0.622676
328	C	0.420803	0.802704	0.679093
329	H	0.383758	0.790415	0.697211
330	H	0.444785	0.790693	0.698698
331	C	0.135544	0.586852	0.676459
332	C	0.107118	0.572632	0.96927
333	N	0.053507	0.542979	0.96929
334	C	0.023841	0.525644	0.673545
335	C	0.049433	0.538116	0.715665
336	C	0.105541	0.569111	0.716138
337	H	0.125077	0.57858	0.746044
338	C	0.968849	0.492749	0.667235
339	C	0.934778	0.51039	0.983326
340	C	0.880447	0.472021	0.978081
341	C	0.860842	0.417952	0.988449
342	C	0.897086	0.403295	0.671639
343	N	0.948798	0.440528	0.676998
344	H	0.854532	0.483662	0.966878
345	H	0.884878	0.364984	0.680666
346	H	0.12596	0.583284	0.939247
347	C	0.952181	0.566573	0.972067
348	H	0.994106	0.593599	0.978929
349	H	0.929308	0.579982	0.991442
350	H	0.945314	0.569596	0.936752
351	C	0.021012	0.521444	0.758957
352	H	0.977938	0.499738	0.755358
353	H	0.031588	0.556429	0.779363
354	H	0.032615	0.49594	0.776529
355	C	0.803193	0.379002	0.986273
356	H	0.796255	0.338411	0.984321
357	H	0.786704	0.386159	0.622706
358	C	0.194607	0.617605	0.67911
359	H	0.206935	0.592899	0.697261
360	H	0.206593	0.653619	0.698681
