data_C216H162_2018-02-15_10:41:41
#******************************************
#
# CIF file created by Zeo++
# Zeo++ is an open source package to
# analyze microporous materials
#
#*******************************************

_cell_length_a		29.8485   
_cell_length_b		29.8484   
_cell_length_c		29.5976   
_cell_angle_alpha		90   
_cell_angle_beta		90   
_cell_angle_gamma		120   

_symmetry_space_group_name_H-M		'P1'
_symmetry_Int_Tables_number		1
_symmetry_cell_setting		Monoclinic

loop_
_symmetry_equiv_pos_as_xyz
'+x,+y,+z'

loop_
_atom_site_label
_atom_site_type_symbol
_atom_site_fract_x
_atom_site_fract_y
_atom_site_fract_z
1	C	0.149109	0.543184	0.984044
2	C	0.120914	0.560809	0.009567
3	C	0.1491	0.607978	0.033273
4	H	0.130108	0.50952	0.965934
5	H	0.130071	0.622512	0.051511
6	C	0.065568	0.532816	0.009795
7	C	0.03533	0.514854	0.049928
8	C	0.039634	0.523969	0.301212
9	H	0.061194	0.537632	0.272251
10	C	0.057179	0.518889	0.09601
11	H	0.098584	0.532932	0.096048
12	H	0.038562	0.480885	0.112126
13	H	0.050021	0.545048	0.116556
14	C	0.149109	0.543184	0.317379
15	C	0.120914	0.560809	0.3429
16	C	0.1491	0.607978	0.366608
17	H	0.130108	0.50952	0.29927
18	H	0.130071	0.622512	0.384842
19	C	0.065568	0.532816	0.343126
20	C	0.03533	0.514854	0.383261
21	C	0.039634	0.523969	0.634545
22	H	0.061194	0.537632	0.605584
23	C	0.057179	0.518889	0.429343
24	H	0.098584	0.532932	0.42938
25	H	0.038562	0.480885	0.445459
26	H	0.050021	0.545048	0.449888
27	C	0.149109	0.543184	0.650712
28	C	0.120914	0.560809	0.676231
29	C	0.1491	0.607978	0.699939
30	H	0.130108	0.50952	0.632603
31	H	0.130071	0.622512	0.718177
32	C	0.065568	0.532816	0.676461
33	C	0.03533	0.514854	0.716593
34	C	0.039634	0.523969	0.967877
35	H	0.061194	0.537632	0.938918
36	C	0.057179	0.518889	0.762678
37	H	0.098584	0.532932	0.762715
38	H	0.038562	0.480885	0.77879
39	H	0.050021	0.545048	0.783223
40	C	0.203563	0.571126	0.983169
41	C	0.20358	0.635387	0.032963
42	C	0.203563	0.571126	0.316503
43	C	0.20358	0.635387	0.366297
44	C	0.203563	0.571126	0.649837
45	C	0.20358	0.635387	0.699628
46	C	0.287986	0.64565	0.007693
47	C	0.316567	0.619417	0.007732
48	C	0.371374	0.645743	0.007718
49	C	0.397612	0.700553	0.007693
50	C	0.371286	0.729033	0.007661
51	C	0.316473	0.70046	0.007659
52	C	0.399337	0.617978	0.007967
53	C	0.381721	0.571695	0.033111
54	C	0.40913	0.544623	0.033423
55	C	0.456205	0.563513	0.00958
56	C	0.473748	0.609247	0.983949
57	C	0.445805	0.635758	0.983081
58	C	0.232255	0.617688	0.007935
59	C	0.399055	0.784763	0.007887
60	C	0.381276	0.813445	0.98299
61	C	0.407773	0.867899	0.983868
62	C	0.453493	0.896093	0.009516
63	C	0.472401	0.867914	0.033343
64	C	0.445344	0.813433	0.033022
65	H	0.222051	0.55718	0.963495
66	H	0.222102	0.668285	0.052058
67	H	0.348888	0.794945	0.963262
68	H	0.393173	0.886901	0.965674
69	H	0.459636	0.794911	0.052222
70	H	0.505885	0.886947	0.051685
71	H	0.459684	0.66813	0.963333
72	H	0.507344	0.623839	0.965745
73	H	0.394665	0.511125	0.051749
74	H	0.348888	0.557389	0.052288
75	H	0.296837	0.579865	0.007831
76	H	0.296662	0.720201	0.007698
77	H	0.437165	0.720371	0.007761
78	C	0.732412	0.367952	0.006664
79	C	0.703832	0.394186	0.006637
80	C	0.649023	0.367857	0.00665
81	C	0.622786	0.313045	0.006664
82	C	0.649116	0.284567	0.006681
83	C	0.703929	0.313143	0.006688
84	C	0.621059	0.395618	0.00641
85	C	0.638666	0.441901	0.981267
86	C	0.611259	0.468973	0.980969
87	C	0.564185	0.450079	0.004812
88	C	0.546648	0.404345	0.030443
89	C	0.574595	0.377835	0.031304
90	C	0.788141	0.395916	0.006417
91	C	0.816839	0.44247	0.031195
92	C	0.871292	0.470408	0.030321
93	C	0.899484	0.452791	0.004789
94	C	0.871295	0.405626	0.981071
95	C	0.816815	0.378224	0.981378
96	C	0.62135	0.22884	0.006441
97	C	0.63913	0.200151	0.031322
98	C	0.61262	0.145696	0.030445
99	C	0.5669	0.117509	0.004795
100	C	0.548001	0.145696	0.980973
101	C	0.57507	0.200176	0.98129
102	H	0.890297	0.504069	0.048437
103	H	0.798351	0.456412	0.050876
104	H	0.890321	0.391099	0.962819
105	H	0.798293	0.345334	0.962272
106	H	0.671496	0.218642	0.051077
107	H	0.627207	0.126687	0.048647
108	H	0.560776	0.218706	0.962103
109	H	0.514523	0.126669	0.96262
110	H	0.560719	0.345461	0.05105
111	H	0.513055	0.389753	0.04865
112	H	0.625712	0.502463	0.96263
113	H	0.671493	0.456203	0.962083
114	H	0.723561	0.433738	0.006546
115	H	0.723739	0.293404	0.00664
116	H	0.583234	0.293226	0.006593
117	C	0.484196	0.536158	0.009805
118	C	0.502366	0.524092	0.049923
119	C	0.527579	0.494746	0.046484
120	C	0.536193	0.47743	0.337923
121	C	0.518036	0.489508	0.297805
122	H	0.541364	0.48697	0.075431
123	C	0.49282	0.518854	0.301242
124	H	0.47901	0.526607	0.272299
125	C	0.521782	0.471407	0.251767
126	H	0.535859	0.444071	0.251768
127	H	0.547787	0.504599	0.231025
128	H	0.483673	0.451894	0.235846
129	C	0.498576	0.542155	0.095965
130	H	0.484502	0.569494	0.095967
131	H	0.536672	0.561656	0.111913
132	H	0.472552	0.508947	0.116681
133	C	0.480844	0.95144	0.009751
134	C	0.492887	0.981661	0.049876
135	C	0.522223	0.036222	0.046451
136	C	0.539533	0.062165	0.337896
137	C	0.527485	0.031943	0.29777
138	H	0.529991	0.057774	0.075402
139	C	0.49815	0.977383	0.301195
140	H	0.49041	0.955827	0.272247
141	C	0.545592	0.053806	0.251739
142	H	0.572911	0.095223	0.251747
143	H	0.512403	0.046606	0.230988
144	H	0.565131	0.035233	0.235821
145	C	0.474819	0.959792	0.095913
146	H	0.447498	0.918379	0.095906
147	H	0.455301	0.978369	0.111861
148	H	0.508029	0.966988	0.116634
149	C	0.980766	0.48962	0.04648
150	C	0.954831	0.480768	0.337896
151	C	0.98507	0.49873	0.297763
152	H	0.959205	0.475987	0.075443
153	C	0.963224	0.494753	0.251687
154	H	0.921821	0.480707	0.251652
155	H	0.970385	0.468617	0.231109
156	H	0.981842	0.532773	0.235606
157	C	0.287986	0.64565	0.341025
158	C	0.316567	0.619417	0.341065
159	C	0.371374	0.645743	0.341052
160	C	0.397612	0.700553	0.341025
161	C	0.371286	0.729033	0.340994
162	C	0.316473	0.70046	0.340991
163	C	0.399337	0.617978	0.341298
164	C	0.381721	0.571695	0.366442
165	C	0.40913	0.544623	0.366757
166	C	0.456205	0.563513	0.342913
167	C	0.473748	0.609247	0.317283
168	C	0.445805	0.635758	0.316415
169	C	0.232255	0.617688	0.341268
170	C	0.399055	0.784763	0.341221
171	C	0.381276	0.813445	0.316325
172	C	0.407773	0.867899	0.317204
173	C	0.453493	0.896093	0.342849
174	C	0.472401	0.867914	0.366675
175	C	0.445344	0.813433	0.366354
176	H	0.222051	0.55718	0.296829
177	H	0.222102	0.668285	0.38539
178	H	0.348888	0.794945	0.296595
179	H	0.393173	0.886901	0.299008
180	H	0.459636	0.794911	0.385555
181	H	0.505885	0.886947	0.385018
182	H	0.459684	0.66813	0.296667
183	H	0.507344	0.623839	0.299079
184	H	0.394665	0.511125	0.385082
185	H	0.348888	0.557389	0.38562
186	H	0.296837	0.579865	0.341163
187	H	0.296662	0.720201	0.341031
188	H	0.437165	0.720371	0.341096
189	C	0.732412	0.367952	0.339998
190	C	0.703832	0.394186	0.339971
191	C	0.649023	0.367857	0.339984
192	C	0.622786	0.313045	0.339998
193	C	0.649116	0.284567	0.340014
194	C	0.703929	0.313143	0.340021
195	C	0.621059	0.395618	0.339744
196	C	0.638666	0.441901	0.314601
197	C	0.611259	0.468973	0.314303
198	C	0.564185	0.450079	0.338146
199	C	0.546648	0.404345	0.363777
200	C	0.574595	0.377835	0.364638
201	C	0.788141	0.395916	0.339751
202	C	0.816839	0.44247	0.364527
203	C	0.871292	0.470408	0.363655
204	C	0.899484	0.452791	0.338122
205	C	0.871295	0.405626	0.314406
206	C	0.816815	0.378224	0.314712
207	C	0.62135	0.22884	0.339775
208	C	0.63913	0.200151	0.364655
209	C	0.61262	0.145696	0.363777
210	C	0.5669	0.117509	0.338129
211	C	0.548001	0.145696	0.314308
212	C	0.57507	0.200176	0.314624
213	H	0.890297	0.504069	0.381768
214	H	0.798351	0.456412	0.384211
215	H	0.890321	0.391099	0.296154
216	H	0.798293	0.345334	0.295607
217	H	0.671496	0.218642	0.38441
218	H	0.627207	0.126687	0.381981
219	H	0.560776	0.218706	0.295437
220	H	0.514523	0.126669	0.295953
221	H	0.560719	0.345461	0.384383
222	H	0.513055	0.389753	0.381984
223	H	0.625712	0.502463	0.295964
224	H	0.671493	0.456203	0.295418
225	H	0.723561	0.433738	0.339879
226	H	0.723739	0.293404	0.339974
227	H	0.583234	0.293226	0.339927
228	C	0.484196	0.536158	0.343136
229	C	0.502366	0.524092	0.383255
230	C	0.527579	0.494746	0.379818
231	C	0.536193	0.47743	0.671258
232	C	0.518036	0.489508	0.631136
233	H	0.541364	0.48697	0.408763
234	C	0.49282	0.518854	0.634576
235	H	0.47901	0.526607	0.605631
236	C	0.521782	0.471407	0.585099
237	H	0.535859	0.444071	0.585102
238	H	0.547787	0.504599	0.564357
239	H	0.483673	0.451894	0.569179
240	C	0.498576	0.542155	0.429299
241	H	0.484502	0.569494	0.429299
242	H	0.536672	0.561656	0.445246
243	H	0.472552	0.508947	0.450013
244	C	0.480844	0.95144	0.343086
245	C	0.492887	0.981661	0.383207
246	C	0.522223	0.036222	0.379785
247	C	0.539533	0.062165	0.671228
248	C	0.527485	0.031943	0.631103
249	H	0.529991	0.057774	0.408736
250	C	0.49815	0.977383	0.634529
251	H	0.49041	0.955827	0.60558
252	C	0.545592	0.053806	0.585072
253	H	0.572911	0.095223	0.585082
254	H	0.512403	0.046606	0.56432
255	H	0.565131	0.035233	0.569155
256	C	0.474819	0.959792	0.429245
257	H	0.447498	0.918379	0.429238
258	H	0.455301	0.978369	0.445195
259	H	0.508029	0.966988	0.449966
260	C	0.980766	0.48962	0.379812
261	C	0.954831	0.480768	0.671231
262	C	0.98507	0.49873	0.631096
263	H	0.959205	0.475987	0.408777
264	C	0.963224	0.494753	0.585021
265	H	0.921821	0.480707	0.584984
266	H	0.970385	0.468617	0.564442
267	H	0.981842	0.532773	0.568939
268	C	0.287986	0.64565	0.67436
269	C	0.316567	0.619417	0.674397
270	C	0.371374	0.645743	0.674383
271	C	0.397612	0.700553	0.67436
272	C	0.371286	0.729033	0.674326
273	C	0.316473	0.70046	0.674326
274	C	0.399337	0.617978	0.674633
275	C	0.381721	0.571695	0.699777
276	C	0.40913	0.544623	0.700088
277	C	0.456205	0.563513	0.676245
278	C	0.473748	0.609247	0.650614
279	C	0.445805	0.635758	0.649749
280	C	0.232255	0.617688	0.674603
281	C	0.399055	0.784763	0.674552
282	C	0.381276	0.813445	0.649658
283	C	0.407773	0.867899	0.650537
284	C	0.453493	0.896093	0.676181
285	C	0.472401	0.867914	0.700007
286	C	0.445344	0.813433	0.699686
287	H	0.222051	0.55718	0.630163
288	H	0.222102	0.668285	0.718725
289	H	0.348888	0.794945	0.629927
290	H	0.393173	0.886901	0.632343
291	H	0.459636	0.794911	0.718887
292	H	0.505885	0.886947	0.71835
293	H	0.459684	0.66813	0.630001
294	H	0.507344	0.623839	0.63241
295	H	0.394665	0.511125	0.718414
296	H	0.348888	0.557389	0.718954
297	H	0.296837	0.579865	0.674498
298	H	0.296662	0.720201	0.674363
299	H	0.437165	0.720371	0.674427
300	C	0.732412	0.367952	0.673329
301	C	0.703832	0.394186	0.673302
302	C	0.649023	0.367857	0.673319
303	C	0.622786	0.313045	0.673329
304	C	0.649116	0.284567	0.673349
305	C	0.703929	0.313143	0.673353
306	C	0.621059	0.395618	0.673079
307	C	0.638666	0.441901	0.647935
308	C	0.611259	0.468973	0.647634
309	C	0.564185	0.450079	0.671478
310	C	0.546648	0.404345	0.697108
311	C	0.574595	0.377835	0.69797
312	C	0.788141	0.395916	0.673086
313	C	0.816839	0.44247	0.697861
314	C	0.871292	0.470408	0.696986
315	C	0.899484	0.452791	0.671454
316	C	0.871295	0.405626	0.647739
317	C	0.816815	0.378224	0.648043
318	C	0.62135	0.22884	0.673106
319	C	0.63913	0.200151	0.69799
320	C	0.61262	0.145696	0.697111
321	C	0.5669	0.117509	0.671464
322	C	0.548001	0.145696	0.647641
323	C	0.57507	0.200176	0.647959
324	H	0.890297	0.504069	0.715103
325	H	0.798351	0.456412	0.717542
326	H	0.890321	0.391099	0.629488
327	H	0.798293	0.345334	0.62894
328	H	0.671496	0.218642	0.717741
329	H	0.627207	0.126687	0.715312
330	H	0.560776	0.218706	0.628771
331	H	0.514523	0.126669	0.629285
332	H	0.560719	0.345461	0.717714
333	H	0.513055	0.389753	0.715316
334	H	0.625712	0.502463	0.629298
335	H	0.671493	0.456203	0.628751
336	H	0.723561	0.433738	0.673214
337	H	0.723739	0.293404	0.673305
338	H	0.583234	0.293226	0.673261
339	C	0.484196	0.536158	0.676471
340	C	0.502366	0.524092	0.716589
341	C	0.527579	0.494746	0.71315
342	C	0.536193	0.47743	0.004589
343	C	0.518036	0.489508	0.964471
344	H	0.541364	0.48697	0.742098
345	C	0.49282	0.518854	0.967907
346	H	0.47901	0.526607	0.938966
347	C	0.521782	0.471407	0.918434
348	H	0.535859	0.444071	0.918434
349	H	0.547787	0.504599	0.897692
350	H	0.483673	0.451894	0.902513
351	C	0.498576	0.542155	0.76263
352	H	0.484502	0.569494	0.762634
353	H	0.536672	0.561656	0.778578
354	H	0.472552	0.508947	0.783348
355	C	0.480844	0.95144	0.676417
356	C	0.492887	0.981661	0.716542
357	C	0.522223	0.036222	0.713116
358	C	0.539533	0.062165	0.004562
359	C	0.527485	0.031943	0.964437
360	H	0.529991	0.057774	0.742068
361	C	0.49815	0.977383	0.96786
362	H	0.49041	0.955827	0.938912
363	C	0.545592	0.053806	0.918403
364	H	0.572911	0.095223	0.918413
365	H	0.512403	0.046606	0.897655
366	H	0.565131	0.035233	0.902486
367	C	0.474819	0.959792	0.76258
368	H	0.447498	0.918379	0.762573
369	H	0.455301	0.978369	0.778527
370	H	0.508029	0.966988	0.783301
371	C	0.980766	0.48962	0.713147
372	C	0.954831	0.480768	0.004562
373	C	0.98507	0.49873	0.964431
374	H	0.959205	0.475987	0.742108
375	C	0.963224	0.494753	0.918353
376	H	0.921821	0.480707	0.918319
377	H	0.970385	0.468617	0.897773
378	H	0.981842	0.532773	0.90227
