data_C192H138N24_2018-02-15_10:47:44
#******************************************
#
# CIF file created by Zeo++
# Zeo++ is an open source package to
# analyze microporous materials
#
#*******************************************

_cell_length_a		25.6707   
_cell_length_b		25.6705   
_cell_length_c		29.2138   
_cell_angle_alpha		90   
_cell_angle_beta		90   
_cell_angle_gamma		90.0372   

_symmetry_space_group_name_H-M		'P1'
_symmetry_Int_Tables_number		1
_symmetry_cell_setting		Monoclinic

loop_
_symmetry_equiv_pos_as_xyz
'+x,+y,+z'

loop_
_atom_site_label
_atom_site_type_symbol
_atom_site_fract_x
_atom_site_fract_y
_atom_site_fract_z
1	C	0.918471	0.875842	0.338002
2	C	0.879634	0.91306	0.338463
3	C	0.902895	0.962256	0.340391
4	N	0.954944	0.952755	0.341911
5	C	0.966624	0.901155	0.340138
6	C	0.015983	0.875636	0.339614
7	C	0.064758	0.902168	0.340089
8	N	0.073887	0.954146	0.340531
9	C	0.125436	0.965525	0.340205
10	C	0.151084	0.917586	0.33944
11	C	0.113882	0.878732	0.339929
12	C	0.149729	0.015385	0.340037
13	C	0.121978	0.063546	0.340951
14	N	0.06989	0.072906	0.341579
15	C	0.058208	0.12453	0.341283
16	C	0.106323	0.149995	0.341159
17	C	0.145171	0.112841	0.341449
18	C	0.008878	0.15001	0.340416
19	C	0.960117	0.123583	0.340822
20	N	0.950975	0.071638	0.342102
21	C	0.89945	0.060337	0.341029
22	C	0.873872	0.108313	0.339254
23	C	0.911111	0.14715	0.339396
24	C	0.875217	0.010463	0.340225
25	C	0.819671	0.008905	0.334934
26	C	0.785464	0.01812	0.038679
27	C	0.730903	0.017015	0.032431
28	C	0.708675	0.006517	0.322282
29	C	0.743428	0.997573	0.285363
30	C	0.797795	0.998921	0.291455
31	C	0.008135	0.205552	0.335097
32	C	0.016741	0.239755	0.038962
33	C	0.015807	0.294313	0.032676
34	C	0.006006	0.316517	0.322396
35	C	0.997624	0.281752	0.285375
36	C	0.998831	0.227396	0.291498
37	C	0.205588	0.01734	0.33778
38	C	0.230936	0.033273	0.297118
39	C	0.285483	0.039203	0.29567
40	C	0.316507	0.02806	0.334466
41	C	0.291363	0.01081	0.04147
42	C	0.236649	0.005847	0.043167
43	C	0.016993	0.819746	0.337217
44	C	0.032556	0.7942	0.296548
45	C	0.00523	0.788824	0.042637
46	C	0.009779	0.734072	0.041028
47	C	0.026873	0.708744	0.334069
48	C	0.038039	0.739608	0.295171
49	H	0.051147	0.722654	0.265594
50	H	0.04187	0.815434	0.268031
51	H	0.002559	0.713029	0.070122
52	H	0.994521	0.806147	0.072758
53	H	0.911847	0.836657	0.335886
54	H	0.840717	0.90479	0.336987
55	H	0.98082	0.979751	0.343676
56	H	0.044007	0.045863	0.340818
57	H	0.122124	0.839797	0.339784
58	H	0.190359	0.911167	0.338815
59	H	0.209587	0.042435	0.268634
60	H	0.302305	0.052414	0.266062
61	H	0.219457	0.994792	0.073256
62	H	0.312529	0.003498	0.070472
63	H	0.184066	0.121325	0.341542
64	H	0.112948	0.189251	0.340855
65	H	0.834641	0.114732	0.337489
66	H	0.903088	0.186109	0.33798
67	H	0.023698	0.225069	0.070954
68	H	0.02205	0.317719	0.060493
69	H	0.992556	0.203767	0.263793
70	H	0.990399	0.295706	0.253143
71	H	0.821417	0.992388	0.263796
72	H	0.729458	0.989915	0.25321
73	H	0.707519	0.023758	0.060165
74	H	0.800151	0.025739	0.070559
75	C	0.003669	0.370278	0.314466
76	C	0.369592	0.038164	0.333432
77	C	0.036944	0.655655	0.333214
78	C	0.6549	0.004215	0.314385
79	H	0.993696	0.381993	0.283222
80	H	0.38129	0.073331	0.323328
81	H	0.072078	0.643965	0.323054
82	H	0.643121	0.994036	0.283205
83	C	0.002844	0.486266	0.049785
84	C	0.999892	0.541411	0.05009
85	C	0.005738	0.569455	0.341664
86	C	0.013444	0.541462	0.300042
87	H	0.998382	0.466095	0.079793
88	C	0.016995	0.486434	0.301381
89	H	0.023411	0.466668	0.271499
90	C	0.990791	0.569194	0.094115
91	H	0.987077	0.542674	0.123177
92	H	0.954979	0.591944	0.091895
93	H	0.023273	0.595477	0.101094
94	C	0.016832	0.566483	0.254134
95	H	0.008856	0.608107	0.254701
96	H	0.98846	0.548774	0.231005
97	H	0.055777	0.560671	0.240023
98	N	0.00174	0.621534	0.342629
99	C	0.538997	0.003814	0.049776
100	C	0.483843	0.000962	0.050136
101	C	0.455772	0.006911	0.341743
102	C	0.483728	0.014582	0.300094
103	H	0.559196	0.999291	0.079761
104	C	0.538774	0.017982	0.301371
105	H	0.558528	0.024373	0.271476
106	C	0.456093	0.991866	0.094184
107	H	0.482642	0.988076	0.123216
108	H	0.433235	0.956094	0.091958
109	H	0.429918	0.024384	0.101215
110	C	0.458648	0.018034	0.254216
111	H	0.416994	0.010187	0.254834
112	H	0.4762	0.989603	0.23107
113	H	0.464606	0.05696	0.240092
114	N	0.40369	0.002957	0.342773
115	C	0.010846	0.457926	0.34242
116	N	0.012059	0.405672	0.344957
117	C	0.567307	0.011761	0.342379
118	N	0.619562	0.012886	0.344861
119	C	0.730903	0.017015	0.365765
120	C	0.015807	0.294313	0.366008
121	C	0.010846	0.457926	0.009087
122	N	0.012059	0.405672	0.011624
123	C	0.567307	0.011761	0.009046
124	N	0.619562	0.012886	0.011528
125	C	0.918471	0.875842	0.671336
126	C	0.879634	0.91306	0.671795
127	C	0.902895	0.962256	0.673726
128	N	0.954944	0.952755	0.675245
129	C	0.966624	0.901155	0.673472
130	C	0.015983	0.875636	0.672949
131	C	0.064758	0.902168	0.673421
132	N	0.073887	0.954146	0.673866
133	C	0.125436	0.965525	0.673537
134	C	0.151084	0.917586	0.672774
135	C	0.113882	0.878732	0.673264
136	C	0.149729	0.015385	0.67337
137	C	0.121978	0.063546	0.674284
138	N	0.06989	0.072906	0.674913
139	C	0.058208	0.12453	0.674616
140	C	0.106323	0.149995	0.674492
141	C	0.145171	0.112841	0.674783
142	C	0.008878	0.15001	0.67375
143	C	0.960117	0.123583	0.674157
144	N	0.950975	0.071638	0.675437
145	C	0.89945	0.060337	0.674362
146	C	0.873872	0.108313	0.672589
147	C	0.911111	0.14715	0.67273
148	C	0.875217	0.010463	0.673558
149	C	0.819671	0.008905	0.668266
150	C	0.785464	0.01812	0.372012
151	C	0.708675	0.006517	0.655618
152	C	0.743428	0.997573	0.618697
153	C	0.797795	0.998921	0.624786
154	C	0.008135	0.205552	0.66843
155	C	0.016741	0.239755	0.372296
156	C	0.006006	0.316517	0.655731
157	C	0.997624	0.281752	0.618707
158	C	0.998831	0.227396	0.624831
159	C	0.205588	0.01734	0.671114
160	C	0.230936	0.033273	0.630452
161	C	0.285483	0.039203	0.629004
162	C	0.316507	0.02806	0.6678
163	C	0.291363	0.01081	0.374805
164	C	0.236649	0.005847	0.3765
165	C	0.016993	0.819746	0.670552
166	C	0.032556	0.7942	0.629883
167	C	0.00523	0.788824	0.375969
168	C	0.009779	0.734072	0.37436
169	C	0.026873	0.708744	0.667403
170	C	0.038039	0.739608	0.628504
171	H	0.051147	0.722654	0.598929
172	H	0.04187	0.815434	0.601366
173	H	0.002559	0.713029	0.403456
174	H	0.994521	0.806147	0.406092
175	H	0.911847	0.836657	0.669217
176	H	0.840717	0.90479	0.67032
177	H	0.98082	0.979751	0.677008
178	H	0.044007	0.045863	0.674154
179	H	0.122124	0.839797	0.67312
180	H	0.190359	0.911167	0.672148
181	H	0.209587	0.042435	0.601968
182	H	0.302305	0.052414	0.599394
183	H	0.219457	0.994792	0.406588
184	H	0.312529	0.003498	0.403805
185	H	0.184066	0.121325	0.674876
186	H	0.112948	0.189251	0.674188
187	H	0.834641	0.114732	0.670823
188	H	0.903088	0.186109	0.671312
189	H	0.023698	0.225069	0.404288
190	H	0.02205	0.317719	0.393827
191	H	0.992556	0.203767	0.597125
192	H	0.990399	0.295706	0.586476
193	H	0.821417	0.992388	0.597128
194	H	0.729458	0.989915	0.586544
195	H	0.707519	0.023758	0.393499
196	H	0.800151	0.025739	0.403891
197	C	0.003669	0.370278	0.6478
198	C	0.369592	0.038164	0.666767
199	C	0.036944	0.655655	0.666548
200	C	0.6549	0.004215	0.647717
201	H	0.993696	0.381993	0.616554
202	H	0.38129	0.073331	0.656662
203	H	0.072078	0.643965	0.656388
204	H	0.643121	0.994036	0.61654
205	C	0.002844	0.486266	0.38312
206	C	0.999892	0.541411	0.383425
207	C	0.005738	0.569455	0.674999
208	C	0.013444	0.541462	0.633375
209	H	0.998382	0.466095	0.413126
210	C	0.016995	0.486434	0.634713
211	H	0.023411	0.466668	0.604834
212	C	0.990791	0.569194	0.427448
213	H	0.987077	0.542674	0.45651
214	H	0.954979	0.591944	0.425227
215	H	0.023273	0.595477	0.434428
216	C	0.016832	0.566483	0.587469
217	H	0.008856	0.608107	0.588033
218	H	0.98846	0.548774	0.564339
219	H	0.055777	0.560671	0.573355
220	N	0.00174	0.621534	0.675964
221	C	0.538997	0.003814	0.38311
222	C	0.483843	0.000962	0.383469
223	C	0.455772	0.006911	0.675078
224	C	0.483728	0.014582	0.633426
225	H	0.559196	0.999291	0.413096
226	C	0.538774	0.017982	0.634706
227	H	0.558528	0.024373	0.60481
228	C	0.456093	0.991866	0.427517
229	H	0.482642	0.988076	0.456548
230	H	0.433235	0.956094	0.425292
231	H	0.429918	0.024384	0.434548
232	C	0.458648	0.018034	0.587551
233	H	0.416994	0.010187	0.588167
234	H	0.4762	0.989603	0.564404
235	H	0.464606	0.05696	0.573424
236	N	0.40369	0.002957	0.676105
237	C	0.918471	0.875842	0.004668
238	C	0.879634	0.91306	0.00513
239	C	0.902895	0.962256	0.007058
240	N	0.954944	0.952755	0.008577
241	C	0.966624	0.901155	0.006804
242	C	0.015983	0.875636	0.006281
243	C	0.064758	0.902168	0.006756
244	N	0.073887	0.954146	0.007198
245	C	0.125436	0.965525	0.006873
246	C	0.151084	0.917586	0.006106
247	C	0.113882	0.878732	0.006595
248	C	0.149729	0.015385	0.006705
249	C	0.121978	0.063546	0.007619
250	N	0.06989	0.072906	0.008245
251	C	0.058208	0.12453	0.007951
252	C	0.106323	0.149995	0.007828
253	C	0.145171	0.112841	0.008115
254	C	0.008878	0.15001	0.007085
255	C	0.960117	0.123583	0.007489
256	N	0.950975	0.071638	0.008769
257	C	0.89945	0.060337	0.007698
258	C	0.873872	0.108313	0.005921
259	C	0.911111	0.14715	0.006065
260	C	0.875217	0.010463	0.006893
261	C	0.819671	0.008905	0.001601
262	C	0.785464	0.01812	0.705348
263	C	0.730903	0.017015	0.699097
264	C	0.708675	0.006517	0.98895
265	C	0.743428	0.997573	0.952029
266	C	0.797795	0.998921	0.958122
267	C	0.008135	0.205552	0.001766
268	C	0.016741	0.239755	0.705628
269	C	0.015807	0.294313	0.699344
270	C	0.006006	0.316517	0.989063
271	C	0.997624	0.281752	0.952043
272	C	0.998831	0.227396	0.958166
273	C	0.205588	0.01734	0.004446
274	C	0.230936	0.033273	0.963784
275	C	0.285483	0.039203	0.962336
276	C	0.316507	0.02806	0.001132
277	C	0.291363	0.01081	0.708137
278	C	0.236649	0.005847	0.709835
279	C	0.016993	0.819746	0.003884
280	C	0.032556	0.7942	0.963215
281	C	0.00523	0.788824	0.709305
282	C	0.009779	0.734072	0.707696
283	C	0.026873	0.708744	0.000735
284	C	0.038039	0.739608	0.961839
285	H	0.051147	0.722654	0.932261
286	H	0.04187	0.815434	0.934698
287	H	0.002559	0.713029	0.736788
288	H	0.994521	0.806147	0.739424
289	H	0.911847	0.836657	0.002553
290	H	0.840717	0.90479	0.003655
291	H	0.98082	0.979751	0.010344
292	H	0.044007	0.045863	0.007485
293	H	0.122124	0.839797	0.006452
294	H	0.190359	0.911167	0.005483
295	H	0.209587	0.042435	0.9353
296	H	0.302305	0.052414	0.93273
297	H	0.219457	0.994792	0.739924
298	H	0.312529	0.003498	0.737141
299	H	0.184066	0.121325	0.008208
300	H	0.112948	0.189251	0.007523
301	H	0.834641	0.114732	0.004155
302	H	0.903088	0.186109	0.004648
303	H	0.023698	0.225069	0.73762
304	H	0.02205	0.317719	0.727159
305	H	0.992556	0.203767	0.93046
306	H	0.990399	0.295706	0.919811
307	H	0.821417	0.992388	0.930464
308	H	0.729458	0.989915	0.919876
309	H	0.707519	0.023758	0.726831
310	H	0.800151	0.025739	0.737226
311	C	0.003669	0.370278	0.981135
312	C	0.369592	0.038164	9.9e-05
313	C	0.036944	0.655655	0.999883
314	C	0.6549	0.004215	0.981053
315	H	0.993696	0.381993	0.949889
316	H	0.38129	0.073331	0.989994
317	H	0.072078	0.643965	0.98972
318	H	0.643121	0.994036	0.949872
319	C	0.010846	0.457926	0.675752
320	C	0.002844	0.486266	0.716452
321	C	0.999892	0.541411	0.716757
322	C	0.005738	0.569455	0.008331
323	C	0.013444	0.541462	0.96671
324	H	0.998382	0.466095	0.746462
325	C	0.016995	0.486434	0.968049
326	H	0.023411	0.466668	0.938166
327	C	0.990791	0.569194	0.760784
328	H	0.987077	0.542674	0.789845
329	H	0.954979	0.591944	0.758562
330	H	0.023273	0.595477	0.76776
331	C	0.016832	0.566483	0.9208
332	H	0.008856	0.608107	0.921369
333	H	0.98846	0.548774	0.897671
334	H	0.055777	0.560671	0.906691
335	N	0.012059	0.405672	0.678292
336	N	0.00174	0.621534	0.009296
337	C	0.567307	0.011761	0.675714
338	C	0.538997	0.003814	0.716442
339	C	0.483843	0.000962	0.716805
340	C	0.455772	0.006911	0.00841
341	C	0.483728	0.014582	0.966762
342	H	0.559196	0.999291	0.746428
343	C	0.538774	0.017982	0.968038
344	H	0.558528	0.024373	0.938142
345	C	0.456093	0.991866	0.760852
346	H	0.482642	0.988076	0.789883
347	H	0.433235	0.956094	0.758624
348	H	0.429918	0.024384	0.767883
349	C	0.458648	0.018034	0.920883
350	H	0.416994	0.010187	0.921502
351	H	0.4762	0.989603	0.897736
352	H	0.464606	0.05696	0.906759
353	N	0.619562	0.012886	0.678193
354	N	0.40369	0.002957	0.00944
