data_C171H108N36_2018-02-15_10:42:32
#******************************************
#
# CIF file created by Zeo++
# Zeo++ is an open source package to
# analyze microporous materials
#
#*******************************************

_cell_length_a		29.3238   
_cell_length_b		29.324   
_cell_length_c		29.8699   
_cell_angle_alpha		90   
_cell_angle_beta		90   
_cell_angle_gamma		120   

_symmetry_space_group_name_H-M		'P1'
_symmetry_Int_Tables_number		1
_symmetry_cell_setting		Monoclinic

loop_
_symmetry_equiv_pos_as_xyz
'+x,+y,+z'

loop_
_atom_site_label
_atom_site_type_symbol
_atom_site_fract_x
_atom_site_fract_y
_atom_site_fract_z
1	C	0.030625	0.515855	0.047989
2	N	0.029451	0.515277	0.301288
3	H	0.03193	0.516501	0.120066
4	C	0.030625	0.515855	0.381323
5	N	0.029451	0.515277	0.634621
6	H	0.03193	0.516501	0.453399
7	C	0.030625	0.515855	0.714655
8	N	0.029451	0.515277	0.967953
9	H	0.03193	0.516501	0.786734
10	C	0.05793	0.529511	0.006485
11	C	0.058859	0.529968	0.091566
12	C	0.05793	0.529511	0.33982
13	C	0.058859	0.529968	0.424899
14	C	0.05793	0.529511	0.673151
15	C	0.058859	0.529968	0.75823
16	C	0.363807	0.723256	0.999533
17	N	0.389308	0.6952	0.999587
18	C	0.363807	0.641642	0.999536
19	N	0.310249	0.616142	0.999587
20	C	0.282193	0.641642	0.999533
21	N	0.310249	0.6952	0.999583
22	C	0.391938	0.613511	5.9e-05
23	C	0.447791	0.640359	0.000594
24	C	0.475575	0.612736	0.002027
25	C	0.448224	0.557229	0.00293
26	C	0.392712	0.529874	0.00203
27	C	0.365091	0.557658	0.000591
28	C	0.391938	0.779518	5.2e-05
29	C	0.44779	0.808524	0.000581
30	C	0.475574	0.863928	0.00201
31	C	0.448221	0.892087	0.002919
32	C	0.392711	0.863928	0.00202
33	C	0.36509	0.808524	0.000588
34	C	0.225931	0.613511	5.5e-05
35	C	0.196924	0.640359	0.000588
36	C	0.141517	0.612736	0.002007
37	C	0.113358	0.557225	0.002912
38	C	0.141517	0.529874	0.002014
39	C	0.196923	0.557658	0.000584
40	H	0.515876	0.883498	0.003005
41	H	0.469172	0.78965	0.00039
42	H	0.371979	0.883498	0.002998
43	H	0.324835	0.78965	0.000383
44	H	0.215798	0.680614	0.00038
45	H	0.121948	0.633468	0.002992
46	H	0.215797	0.536277	0.000393
47	H	0.121948	0.489575	0.003006
48	H	0.324836	0.536277	0.000393
49	H	0.37198	0.489571	0.003006
50	H	0.515877	0.633468	0.002998
51	H	0.469173	0.680614	0.000383
52	C	0.642733	0.281105	8.9e-05
53	N	0.617228	0.309158	0.000126
54	C	0.642731	0.362714	8.9e-05
55	N	0.696289	0.388217	0.000129
56	C	0.72434	0.362714	9.2e-05
57	N	0.696287	0.309158	0.000129
58	C	0.614602	0.390844	0.00045
59	C	0.558744	0.363996	0.000839
60	C	0.530953	0.391624	0.00187
61	C	0.558306	0.447138	0.002404
62	C	0.61382	0.474493	0.00186
63	C	0.641449	0.446701	0.000835
64	C	0.614602	0.224845	0.000454
65	C	0.558746	0.195837	0.000849
66	C	0.530954	0.140417	0.001873
67	C	0.558308	0.112257	0.002418
68	C	0.613822	0.140417	0.001876
69	C	0.64145	0.195837	0.000842
70	C	0.7806	0.390844	0.000454
71	C	0.809609	0.363996	0.000849
72	C	0.865031	0.391624	0.00188
73	C	0.89319	0.447138	0.002423
74	C	0.865032	0.474493	0.00186
75	C	0.80961	0.446701	0.000839
76	H	0.490644	0.120839	0.002605
77	H	0.537366	0.214713	0.000728
78	H	0.634554	0.120839	0.002613
79	H	0.681707	0.214713	0.000735
80	H	0.790732	0.32374	0.000735
81	H	0.884606	0.370892	0.002617
82	H	0.790732	0.468079	0.000732
83	H	0.884608	0.514804	0.002611
84	H	0.681705	0.468079	0.000728
85	H	0.634553	0.5148	0.002598
86	H	0.490642	0.370892	0.002608
87	H	0.537365	0.32374	0.000738
88	C	0.530623	0.474824	0.005177
89	C	0.517429	0.488012	0.046691
90	C	0.489592	0.515851	0.047993
91	C	0.475938	0.529511	0.006494
92	N	0.490175	0.51528	0.301291
93	H	0.528105	0.477333	0.075773
94	N	0.51593	0.48952	0.300575
95	C	0.47548	0.529964	0.091574
96	H	0.488944	0.516493	0.120071
97	H	0.432792	0.512071	0.094075
98	H	0.493371	0.572649	0.094077
99	C	0.530623	0.056888	0.005184
100	C	0.517429	0.0305	0.046696
101	C	0.48959	0.974822	0.047991
102	C	0.475937	0.947514	0.006489
103	N	0.490177	0.975992	0.30129
104	H	0.528105	0.051851	0.075781
105	N	0.515931	0.027504	0.300579
106	C	0.475474	0.946593	0.09157
107	H	0.488939	0.973523	0.120069
108	H	0.493365	0.921797	0.094069
109	H	0.432787	0.921797	0.094069
110	C	0.94856	0.474824	0.005186
111	C	0.974952	0.488016	0.046696
112	H	0.953601	0.477336	0.075782
113	N	0.977941	0.48952	0.30058
114	H	0.083654	0.572657	0.094065
115	H	0.083655	0.512079	0.094062
116	C	0.363807	0.723256	0.332867
117	N	0.389308	0.6952	0.332921
118	C	0.363807	0.641642	0.332871
119	N	0.310249	0.616142	0.332922
120	C	0.282193	0.641642	0.332866
121	N	0.310249	0.6952	0.332919
122	C	0.391938	0.613511	0.333394
123	C	0.447791	0.640359	0.333929
124	C	0.475575	0.612736	0.33536
125	C	0.448224	0.557229	0.336264
126	C	0.392712	0.529874	0.335364
127	C	0.365091	0.557658	0.333926
128	C	0.391938	0.779518	0.333386
129	C	0.44779	0.808524	0.333917
130	C	0.475574	0.863928	0.335347
131	C	0.448221	0.892087	0.336251
132	C	0.392711	0.863928	0.335354
133	C	0.36509	0.808524	0.333924
134	C	0.225931	0.613511	0.33339
135	C	0.196924	0.640359	0.333923
136	C	0.141517	0.612736	0.33534
137	C	0.113358	0.557225	0.336244
138	C	0.141517	0.529874	0.335347
139	C	0.196923	0.557658	0.333918
140	H	0.515876	0.883498	0.336338
141	H	0.469172	0.78965	0.333725
142	H	0.371979	0.883498	0.336331
143	H	0.324835	0.78965	0.333718
144	H	0.215798	0.680614	0.333714
145	H	0.121948	0.633468	0.336325
146	H	0.215797	0.536277	0.333729
147	H	0.121948	0.489575	0.336338
148	H	0.324836	0.536277	0.333727
149	H	0.37198	0.489571	0.336338
150	H	0.515877	0.633468	0.336331
151	H	0.469173	0.680614	0.333719
152	C	0.642733	0.281105	0.333424
153	N	0.617228	0.309158	0.333461
154	C	0.642731	0.362714	0.333425
155	N	0.696289	0.388217	0.333462
156	C	0.72434	0.362714	0.333427
157	N	0.696287	0.309158	0.333463
158	C	0.614602	0.390844	0.333784
159	C	0.558744	0.363996	0.334172
160	C	0.530953	0.391624	0.335203
161	C	0.558306	0.447138	0.335739
162	C	0.61382	0.474493	0.335193
163	C	0.641449	0.446701	0.334171
164	C	0.614602	0.224845	0.333787
165	C	0.558746	0.195837	0.334182
166	C	0.530954	0.140417	0.33521
167	C	0.558308	0.112257	0.335752
168	C	0.613822	0.140417	0.33521
169	C	0.64145	0.195837	0.334176
170	C	0.7806	0.390844	0.333787
171	C	0.809609	0.363996	0.334183
172	C	0.865031	0.391624	0.335213
173	C	0.89319	0.447138	0.335756
174	C	0.865032	0.474493	0.335193
175	C	0.80961	0.446701	0.334173
176	H	0.490644	0.120839	0.335936
177	H	0.537366	0.214713	0.334062
178	H	0.634554	0.120839	0.335946
179	H	0.681707	0.214713	0.334071
180	H	0.790732	0.32374	0.334069
181	H	0.884606	0.370892	0.33595
182	H	0.790732	0.468079	0.334065
183	H	0.884608	0.514804	0.335943
184	H	0.681705	0.468079	0.334062
185	H	0.634553	0.5148	0.33593
186	H	0.490642	0.370892	0.33594
187	H	0.537365	0.32374	0.334071
188	C	0.530623	0.474824	0.338511
189	C	0.517429	0.488012	0.380024
190	C	0.489592	0.515851	0.381326
191	C	0.475938	0.529511	0.339826
192	N	0.490175	0.51528	0.634624
193	H	0.528105	0.477333	0.409107
194	N	0.51593	0.48952	0.633908
195	C	0.47548	0.529964	0.424905
196	H	0.488944	0.516493	0.453402
197	H	0.432792	0.512071	0.427409
198	H	0.493371	0.572649	0.427409
199	C	0.530623	0.056888	0.338517
200	C	0.517429	0.0305	0.380027
201	C	0.48959	0.974822	0.381323
202	C	0.475937	0.947514	0.339823
203	N	0.490177	0.975992	0.634624
204	H	0.528105	0.051851	0.409114
205	N	0.515931	0.027504	0.633911
206	C	0.475474	0.946593	0.424902
207	H	0.488939	0.973523	0.453402
208	H	0.493365	0.921797	0.427403
209	H	0.432787	0.921797	0.427403
210	C	0.94856	0.474824	0.338517
211	C	0.974952	0.488016	0.380031
212	H	0.953601	0.477336	0.409114
213	N	0.977941	0.48952	0.633911
214	H	0.083654	0.572657	0.427399
215	H	0.083655	0.512079	0.427396
216	C	0.363807	0.723256	0.666201
217	N	0.389308	0.6952	0.666255
218	C	0.363807	0.641642	0.666205
219	N	0.310249	0.616142	0.666255
220	C	0.282193	0.641642	0.666198
221	N	0.310249	0.6952	0.666252
222	C	0.391938	0.613511	0.666727
223	C	0.447791	0.640359	0.667263
224	C	0.475575	0.612736	0.668695
225	C	0.448224	0.557229	0.669596
226	C	0.392712	0.529874	0.668695
227	C	0.365091	0.557658	0.667259
228	C	0.391938	0.779518	0.66672
229	C	0.44779	0.808524	0.667249
230	C	0.475574	0.863928	0.668679
231	C	0.448221	0.892087	0.669586
232	C	0.392711	0.863928	0.668685
233	C	0.36509	0.808524	0.667256
234	C	0.225931	0.613511	0.666724
235	C	0.196924	0.640359	0.667256
236	C	0.141517	0.612736	0.668675
237	C	0.113358	0.557225	0.669576
238	C	0.141517	0.529874	0.668682
239	C	0.196923	0.557658	0.667253
240	H	0.515876	0.883498	0.66967
241	H	0.469172	0.78965	0.667058
242	H	0.371979	0.883498	0.669663
243	H	0.324835	0.78965	0.667052
244	H	0.215798	0.680614	0.667048
245	H	0.121948	0.633468	0.669656
246	H	0.215797	0.536277	0.667062
247	H	0.121948	0.489575	0.669673
248	H	0.324836	0.536277	0.667058
249	H	0.37198	0.489571	0.669673
250	H	0.515877	0.633468	0.669663
251	H	0.469173	0.680614	0.667052
252	C	0.642733	0.281105	0.666757
253	N	0.617228	0.309158	0.666794
254	C	0.642731	0.362714	0.666757
255	N	0.696289	0.388217	0.666794
256	C	0.72434	0.362714	0.66676
257	N	0.696287	0.309158	0.666794
258	C	0.614602	0.390844	0.667115
259	C	0.558744	0.363996	0.667504
260	C	0.530953	0.391624	0.668538
261	C	0.558306	0.447138	0.66907
262	C	0.61382	0.474493	0.668525
263	C	0.641449	0.446701	0.667504
264	C	0.614602	0.224845	0.667119
265	C	0.558746	0.195837	0.667514
266	C	0.530954	0.140417	0.668541
267	C	0.558308	0.112257	0.669084
268	C	0.613822	0.140417	0.668545
269	C	0.64145	0.195837	0.66751
270	C	0.7806	0.390844	0.667119
271	C	0.809609	0.363996	0.667517
272	C	0.865031	0.391624	0.668548
273	C	0.89319	0.447138	0.669087
274	C	0.865032	0.474493	0.668528
275	C	0.80961	0.446701	0.667507
276	H	0.490644	0.120839	0.669271
277	H	0.537366	0.214713	0.667393
278	H	0.634554	0.120839	0.669278
279	H	0.681707	0.214713	0.667403
280	H	0.790732	0.32374	0.667403
281	H	0.884606	0.370892	0.669285
282	H	0.790732	0.468079	0.667396
283	H	0.884608	0.514804	0.669278
284	H	0.681705	0.468079	0.667393
285	H	0.634553	0.5148	0.669265
286	H	0.490642	0.370892	0.669275
287	H	0.537365	0.32374	0.667403
288	C	0.530623	0.474824	0.671842
289	C	0.517429	0.488012	0.713356
290	C	0.489592	0.515851	0.714658
291	C	0.475938	0.529511	0.673158
292	N	0.490175	0.51528	0.967956
293	H	0.528105	0.477333	0.742438
294	N	0.51593	0.48952	0.96724
295	C	0.47548	0.529964	0.75824
296	H	0.488944	0.516493	0.786737
297	H	0.432792	0.512071	0.760741
298	H	0.493371	0.572649	0.760744
299	C	0.530623	0.056888	0.671849
300	C	0.517429	0.0305	0.713362
301	C	0.48959	0.974822	0.714658
302	C	0.475937	0.947514	0.673155
303	N	0.490177	0.975992	0.967956
304	H	0.528105	0.051851	0.742445
305	N	0.515931	0.027504	0.967246
306	C	0.475474	0.946593	0.758234
307	H	0.488939	0.973523	0.786734
308	H	0.493365	0.921797	0.760734
309	H	0.432787	0.921797	0.760734
310	C	0.94856	0.474824	0.671852
311	C	0.974952	0.488016	0.713362
312	H	0.953601	0.477336	0.742449
313	N	0.977941	0.48952	0.967246
314	H	0.083654	0.572657	0.760731
315	H	0.083655	0.512079	0.760728
