data_C180H150N36_2018-02-15_10:34:41
#******************************************
#
# CIF file created by Zeo++
# Zeo++ is an open source package to
# analyze microporous materials
#
#*******************************************

_cell_length_a		25.2578   
_cell_length_b		25.2595   
_cell_length_c		30.0392   
_cell_angle_alpha		90   
_cell_angle_beta		90   
_cell_angle_gamma		89.9623   

_symmetry_space_group_name_H-M		'P1'
_symmetry_Int_Tables_number		1
_symmetry_cell_setting		Monoclinic

loop_
_symmetry_equiv_pos_as_xyz
'+x,+y,+z'

loop_
_atom_site_label
_atom_site_type_symbol
_atom_site_fract_x
_atom_site_fract_y
_atom_site_fract_z
1	C	0.081794	0.850939	0.334719
2	C	0.124731	0.884669	0.334636
3	C	0.105882	0.936693	0.333387
4	N	0.052419	0.93252	0.331949
5	C	0.035725	0.881557	0.333078
6	C	0.983288	0.861078	0.333218
7	C	0.936486	0.892143	0.33182
8	N	0.93267	0.945446	0.330615
9	C	0.881748	0.961737	0.329681
10	C	0.850853	0.9159	0.330258
11	C	0.884614	0.872974	0.331463
12	C	0.862631	0.014546	0.328567
13	C	0.894963	0.060624	0.328592
14	N	0.948433	0.064782	0.32985
15	C	0.965111	0.11575	0.328936
16	C	0.919038	0.146375	0.327443
17	C	0.876119	0.112632	0.326982
18	C	0.017528	0.136265	0.329485
19	C	0.064341	0.105212	0.330863
20	N	0.068191	0.051888	0.331358
21	C	0.119104	0.035592	0.332701
22	C	0.149946	0.081473	0.333237
23	C	0.116198	0.12439	0.33171
24	C	0.138224	0.98277	0.33383
25	C	0.193969	0.975589	0.337139
26	C	0.226556	0.979766	0.299098
27	C	0.281663	0.97302	0.302784
28	C	0.305193	0.961333	0.344356
29	C	0.272351	0.956998	0.048954
30	C	0.217336	0.964326	0.04546
31	C	0.023836	0.192189	0.327824
32	C	0.020479	0.219156	0.28674
33	C	0.027353	0.274337	0.284933
34	C	0.038478	0.303562	0.32396
35	C	0.04158	0.276387	0.031707
36	C	0.034181	0.221261	0.033688
37	C	0.806818	0.021768	0.326792
38	C	0.778023	0.034022	0.032419
39	C	0.722977	0.042082	0.03037
40	C	0.695602	0.037773	0.322794
41	C	0.724572	0.024883	0.284005
42	C	0.779669	0.017282	0.285872
43	C	0.976907	0.805273	0.336626
44	C	0.965267	0.782014	0.044909
45	C	0.981561	0.772616	0.298673
46	C	0.974779	0.717528	0.302395
47	C	0.96262	0.694103	0.343914
48	C	0.957974	0.727013	0.048442
49	H	0.949643	0.711162	0.078985
50	H	0.96176	0.804972	0.072844
51	H	0.978437	0.694562	0.274497
52	H	0.989956	0.788689	0.2682
53	H	0.084526	0.810602	0.336044
54	H	0.163288	0.872451	0.335801
55	H	0.02895	0.962382	0.330906
56	H	0.971899	0.034936	0.33122
57	H	0.872647	0.834339	0.331992
58	H	0.810467	0.913422	0.329994
59	H	0.796945	0.037369	0.062425
60	H	0.702969	0.050746	0.059073
61	H	0.799795	0.008427	0.257238
62	H	0.705725	0.021311	0.254
63	H	0.837568	0.124842	0.325609
64	H	0.916303	0.186729	0.326533
65	H	0.190301	0.084014	0.334346
66	H	0.128175	0.163025	0.331626
67	H	0.013004	0.198835	0.257931
68	H	0.02465	0.293044	0.2548
69	H	0.036714	0.202471	0.06381
70	H	0.048972	0.296589	0.060561
71	H	0.19446	0.961301	0.07348
72	H	0.288295	0.949084	0.079547
73	H	0.304576	0.976523	0.274844
74	H	0.210439	0.988036	0.268611
75	C	0.045468	0.361852	0.32156
76	H	0.069785	0.371843	0.292633
77	H	0.066925	0.375666	0.017686
78	C	0.363472	0.954876	0.347832
79	H	0.37605	0.925651	0.323098
80	H	0.374549	0.939361	0.047172
81	C	0.95577	0.635883	0.347382
82	H	0.926563	0.623539	0.322565
83	H	0.940039	0.624941	0.04668
84	C	0.63735	0.045221	0.320359
85	H	0.627523	0.069174	0.291177
86	H	0.623664	0.067196	0.016265
87	C	0.993948	0.532908	0.087267
88	C	0.996405	0.517781	0.039781
89	H	0.955183	0.522532	0.100707
90	H	0.000488	0.575031	0.092631
91	H	0.024275	0.511352	0.105766
92	N	0.992924	0.465306	0.030387
93	C	0.996109	0.444371	0.322205
94	C	0.003914	0.479467	0.285987
95	C	0.007637	0.46221	0.239093
96	H	0.041007	0.435293	0.234833
97	H	0.013392	0.495924	0.216851
98	H	0.971255	0.442075	0.229308
99	N	0.007055	0.532009	0.295287
100	C	0.003586	0.552952	0.003457
101	N	0.993228	0.388696	0.319396
102	H	0.971911	0.377369	0.291925
103	N	0.006914	0.608559	0.005896
104	H	0.035176	0.619375	0.028708
105	C	0.466568	0.993661	0.08726
106	C	0.481414	0.996227	0.039717
107	H	0.477189	0.954912	0.100624
108	H	0.424447	7.5e-05	0.092799
109	H	0.488103	0.024025	0.1057
110	N	0.533855	0.992925	0.030101
111	C	0.554532	0.996258	0.321838
112	C	0.519188	0.004014	0.285775
113	C	0.536146	0.007795	0.238807
114	H	0.562817	0.0413	0.234421
115	H	0.50226	0.013368	0.216708
116	H	0.556456	0.971515	0.228944
117	N	0.466679	0.00689	0.295292
118	C	0.445987	0.003264	0.003542
119	N	0.610176	0.993162	0.318765
120	H	0.621232	0.971353	0.291482
121	N	0.390359	0.006189	0.006194
122	H	0.379428	0.034405	0.029019
123	C	0.081794	0.850939	0.668053
124	C	0.124731	0.884669	0.66797
125	C	0.105882	0.936693	0.666721
126	N	0.052419	0.93252	0.665283
127	C	0.035725	0.881557	0.666412
128	C	0.983288	0.861078	0.666552
129	C	0.936486	0.892143	0.665153
130	N	0.93267	0.945446	0.663948
131	C	0.881748	0.961737	0.663013
132	C	0.850853	0.9159	0.663592
133	C	0.884614	0.872974	0.664797
134	C	0.862631	0.014546	0.661901
135	C	0.894963	0.060624	0.661928
136	N	0.948433	0.064782	0.663183
137	C	0.965111	0.11575	0.66227
138	C	0.919038	0.146375	0.660776
139	C	0.876119	0.112632	0.660316
140	C	0.017528	0.136265	0.66282
141	C	0.064341	0.105212	0.664198
142	N	0.068191	0.051888	0.664691
143	C	0.119104	0.035592	0.666036
144	C	0.149946	0.081473	0.666572
145	C	0.116198	0.12439	0.665044
146	C	0.138224	0.98277	0.667164
147	C	0.193969	0.975589	0.67047
148	C	0.226556	0.979766	0.632433
149	C	0.281663	0.97302	0.636118
150	C	0.305193	0.961333	0.67769
151	C	0.272351	0.956998	0.382287
152	C	0.217336	0.964326	0.378795
153	C	0.023836	0.192189	0.661159
154	C	0.020479	0.219156	0.620072
155	C	0.027353	0.274337	0.618268
156	C	0.038478	0.303562	0.657294
157	C	0.04158	0.276387	0.365039
158	C	0.034181	0.221261	0.367023
159	C	0.806818	0.021768	0.660127
160	C	0.778023	0.034022	0.365752
161	C	0.722977	0.042082	0.363704
162	C	0.695602	0.037773	0.656128
163	C	0.724572	0.024883	0.617339
164	C	0.779669	0.017282	0.619207
165	C	0.976907	0.805273	0.66996
166	C	0.965267	0.782014	0.378242
167	C	0.981561	0.772616	0.632007
168	C	0.974779	0.717528	0.635729
169	C	0.96262	0.694103	0.677244
170	C	0.957974	0.727013	0.381777
171	H	0.949643	0.711162	0.412317
172	H	0.96176	0.804972	0.406179
173	H	0.978437	0.694562	0.607832
174	H	0.989956	0.788689	0.601533
175	H	0.084526	0.810602	0.669378
176	H	0.163288	0.872451	0.669135
177	H	0.02895	0.962382	0.664241
178	H	0.971899	0.034936	0.664554
179	H	0.872647	0.834339	0.665326
180	H	0.810467	0.913422	0.663329
181	H	0.796945	0.037369	0.395759
182	H	0.702969	0.050746	0.392407
183	H	0.799795	0.008427	0.590571
184	H	0.705725	0.021311	0.587332
185	H	0.837568	0.124842	0.658941
186	H	0.916303	0.186729	0.659867
187	H	0.190301	0.084014	0.66768
188	H	0.128175	0.163025	0.66496
189	H	0.013004	0.198835	0.591267
190	H	0.02465	0.293044	0.588134
191	H	0.036714	0.202471	0.397144
192	H	0.048972	0.296589	0.393895
193	H	0.19446	0.961301	0.406815
194	H	0.288295	0.949084	0.41288
195	H	0.304576	0.976523	0.608178
196	H	0.210439	0.988036	0.601943
197	C	0.045468	0.361852	0.654893
198	H	0.069785	0.371843	0.625968
199	H	0.066925	0.375666	0.351021
200	C	0.363472	0.954876	0.681166
201	H	0.37605	0.925651	0.656431
202	H	0.374549	0.939361	0.380506
203	C	0.95577	0.635883	0.680716
204	H	0.926563	0.623539	0.655899
205	H	0.940039	0.624941	0.380013
206	C	0.63735	0.045221	0.653692
207	H	0.627523	0.069174	0.62451
208	H	0.623664	0.067196	0.349599
209	C	0.993948	0.532908	0.4206
210	C	0.996405	0.517781	0.373115
211	H	0.955183	0.522532	0.434042
212	H	0.000488	0.575031	0.425966
213	H	0.024275	0.511352	0.439099
214	N	0.992924	0.465306	0.363721
215	C	0.996109	0.444371	0.655539
216	C	0.003914	0.479467	0.61932
217	C	0.007637	0.46221	0.572428
218	H	0.041007	0.435293	0.568167
219	H	0.013392	0.495924	0.550184
220	H	0.971255	0.442075	0.562641
221	N	0.007055	0.532009	0.628621
222	C	0.003586	0.552952	0.33679
223	N	0.993228	0.388696	0.65273
224	H	0.971911	0.377369	0.625259
225	N	0.006914	0.608559	0.33923
226	H	0.035176	0.619375	0.36204
227	C	0.466568	0.993661	0.420593
228	C	0.481414	0.996227	0.373052
229	H	0.477189	0.954912	0.433959
230	H	0.424447	7.5e-05	0.426133
231	H	0.488103	0.024025	0.439032
232	N	0.533855	0.992925	0.363435
233	C	0.554532	0.996258	0.655173
234	C	0.519188	0.004014	0.619107
235	C	0.536146	0.007795	0.572142
236	H	0.562817	0.0413	0.567754
237	H	0.50226	0.013368	0.550041
238	H	0.556456	0.971515	0.562278
239	N	0.466679	0.00689	0.628624
240	C	0.445987	0.003264	0.336876
241	N	0.610176	0.993162	0.652097
242	H	0.621232	0.971353	0.624816
243	N	0.390359	0.006189	0.339529
244	H	0.379428	0.034405	0.362353
245	C	0.081794	0.850939	0.001385
246	C	0.124731	0.884669	0.001301
247	C	0.105882	0.936693	5.4e-05
248	N	0.052419	0.93252	0.998617
249	C	0.035725	0.881557	0.999743
250	C	0.983288	0.861078	0.999883
251	C	0.936486	0.892143	0.998487
252	N	0.93267	0.945446	0.997282
253	C	0.881748	0.961737	0.996347
254	C	0.850853	0.9159	0.996926
255	C	0.884614	0.872974	0.998131
256	C	0.862631	0.014546	0.995235
257	C	0.894963	0.060624	0.995258
258	N	0.948433	0.064782	0.996517
259	C	0.965111	0.11575	0.995604
260	C	0.919038	0.146375	0.99411
261	C	0.876119	0.112632	0.99365
262	C	0.017528	0.136265	0.996154
263	C	0.064341	0.105212	0.997532
264	N	0.068191	0.051888	0.998025
265	C	0.119104	0.035592	0.999367
266	C	0.149946	0.081473	0.999903
267	C	0.116198	0.12439	0.998378
268	C	0.138224	0.98277	0.000497
269	C	0.193969	0.975589	0.003804
270	C	0.226556	0.979766	0.965767
271	C	0.281663	0.97302	0.969452
272	C	0.305193	0.961333	0.011023
273	C	0.272351	0.956998	0.715621
274	C	0.217336	0.964326	0.712125
275	C	0.023836	0.192189	0.994493
276	C	0.020479	0.219156	0.953406
277	C	0.027353	0.274337	0.951599
278	C	0.038478	0.303562	0.990628
279	C	0.04158	0.276387	0.698373
280	C	0.034181	0.221261	0.700354
281	C	0.806818	0.021768	0.993461
282	C	0.778023	0.034022	0.699086
283	C	0.722977	0.042082	0.697038
284	C	0.695602	0.037773	0.989463
285	C	0.724572	0.024883	0.950673
286	C	0.779669	0.017282	0.952541
287	C	0.976907	0.805273	0.003293
288	C	0.965267	0.782014	0.711576
289	C	0.981561	0.772616	0.965341
290	C	0.974779	0.717528	0.969063
291	C	0.96262	0.694103	0.010578
292	C	0.957974	0.727013	0.715111
293	H	0.949643	0.711162	0.745651
294	H	0.96176	0.804972	0.739513
295	H	0.978437	0.694562	0.941166
296	H	0.989956	0.788689	0.934867
297	H	0.084526	0.810602	0.00271
298	H	0.163288	0.872451	0.002466
299	H	0.02895	0.962382	0.997572
300	H	0.971899	0.034936	0.997888
301	H	0.872647	0.834339	0.99866
302	H	0.810467	0.913422	0.996663
303	H	0.796945	0.037369	0.729093
304	H	0.702969	0.050746	0.725741
305	H	0.799795	0.008427	0.923905
306	H	0.705725	0.021311	0.920666
307	H	0.837568	0.124842	0.992276
308	H	0.916303	0.186729	0.993201
309	H	0.190301	0.084014	0.001013
310	H	0.128175	0.163025	0.998294
311	H	0.013004	0.198835	0.924597
312	H	0.02465	0.293044	0.921468
313	H	0.036714	0.202471	0.730478
314	H	0.048972	0.296589	0.727229
315	H	0.19446	0.961301	0.740149
316	H	0.288295	0.949084	0.746214
317	H	0.304576	0.976523	0.941512
318	H	0.210439	0.988036	0.935277
319	C	0.045468	0.361852	0.988227
320	H	0.069785	0.371843	0.959302
321	H	0.066925	0.375666	0.684355
322	C	0.363472	0.954876	0.014497
323	H	0.37605	0.925651	0.989765
324	H	0.374549	0.939361	0.71384
325	C	0.95577	0.635883	0.01405
326	H	0.926563	0.623539	0.989233
327	H	0.940039	0.624941	0.713347
328	C	0.63735	0.045221	0.987026
329	H	0.627523	0.069174	0.957844
330	H	0.623664	0.067196	0.682933
331	C	0.993948	0.532908	0.753934
332	C	0.996405	0.517781	0.706449
333	H	0.955183	0.522532	0.767376
334	H	0.000488	0.575031	0.7593
335	H	0.024275	0.511352	0.772433
336	N	0.992924	0.465306	0.697055
337	C	0.996109	0.444371	0.988873
338	C	0.003914	0.479467	0.952654
339	C	0.007637	0.46221	0.905759
340	H	0.041007	0.435293	0.901501
341	H	0.013392	0.495924	0.883518
342	H	0.971255	0.442075	0.895975
343	N	0.007055	0.532009	0.961955
344	C	0.003586	0.552952	0.670124
345	N	0.993228	0.388696	0.986064
346	H	0.971911	0.377369	0.958593
347	N	0.006914	0.608559	0.672564
348	H	0.035176	0.619375	0.695374
349	C	0.466568	0.993661	0.753927
350	C	0.481414	0.996227	0.706383
351	H	0.477189	0.954912	0.76729
352	H	0.424447	7.5e-05	0.759467
353	H	0.488103	0.024025	0.772366
354	N	0.533855	0.992925	0.696769
355	C	0.554532	0.996258	0.988504
356	C	0.519188	0.004014	0.952441
357	C	0.536146	0.007795	0.905476
358	H	0.562817	0.0413	0.901088
359	H	0.50226	0.013368	0.883375
360	H	0.556456	0.971515	0.895612
361	N	0.466679	0.00689	0.961958
362	C	0.445987	0.003264	0.67021
363	N	0.610176	0.993162	0.985431
364	H	0.621232	0.971353	0.95815
365	N	0.390359	0.006189	0.672863
366	H	0.379428	0.034405	0.695687
