data_C180H132N30O12_2018-02-15_10:34:41
#******************************************
#
# CIF file created by Zeo++
# Zeo++ is an open source package to
# analyze microporous materials
#
#*******************************************

_cell_length_a		25.3037   
_cell_length_b		25.3053   
_cell_length_c		30.0176   
_cell_angle_alpha		90   
_cell_angle_beta		90   
_cell_angle_gamma		90.0376   

_symmetry_space_group_name_H-M		'P1'
_symmetry_Int_Tables_number		1
_symmetry_cell_setting		Monoclinic

loop_
_symmetry_equiv_pos_as_xyz
'+x,+y,+z'

loop_
_atom_site_label
_atom_site_type_symbol
_atom_site_fract_x
_atom_site_fract_y
_atom_site_fract_z
1	C	0.918605	0.85109	0.998064
2	C	0.875396	0.884174	0.000786
3	C	0.893704	0.936214	0.003118
4	N	0.947141	0.932717	0.002092
5	C	0.964318	0.882119	0.999044
6	C	0.016858	0.86232	0.996745
7	C	0.06318	0.893998	0.996572
8	N	0.066385	0.947243	0.998301
9	C	0.116966	0.964244	0.996708
10	C	0.148286	0.918929	0.993927
11	C	0.115151	0.875618	0.994166
12	C	0.135422	0.01721	0.997521
13	C	0.102574	0.062673	0.000383
14	N	0.049129	0.066144	0.000997
15	C	0.031921	0.116705	0.004324
16	C	0.077586	0.147751	0.005967
17	C	0.120827	0.114682	0.003535
18	C	0.979376	0.13651	0.006115
19	C	0.933034	0.104923	0.006006
20	N	0.929889	0.051667	0.004766
21	C	0.8793	0.034702	0.00608
22	C	0.84792	0.080036	0.008108
23	C	0.881058	0.123358	0.007921
24	C	0.860909	0.981726	0.005659
25	C	0.805402	0.973755	0.009017
26	C	0.781749	0.967006	0.051242
27	C	0.726804	0.959944	0.05494
28	C	0.694362	0.959731	0.016589
29	C	0.718295	0.966393	0.307712
30	C	0.773292	0.973238	0.303884
31	C	0.972544	0.192123	0.009907
32	C	0.966865	0.215672	0.052287
33	C	0.960313	0.270648	0.05622
34	C	0.959548	0.303224	0.017956
35	C	0.965271	0.279412	0.308938
36	C	0.971581	0.224393	0.304878
37	C	0.190956	0.02529	0.99412
38	C	0.213665	0.038684	0.28598
39	C	0.268545	0.046086	0.282136
40	C	0.30193	0.039918	0.986211
41	C	0.278999	0.026552	0.027676
42	C	0.224048	0.019487	0.03169
43	C	0.023694	0.806676	0.992724
44	C	0.03422	0.783926	0.284016
45	C	0.020022	0.773557	0.030472
46	C	0.026546	0.718588	0.026131
47	C	0.037425	0.695676	0.984152
48	C	0.041274	0.729048	0.279852
49	H	0.048676	0.713601	0.248984
50	H	0.03691	0.80717	0.256188
51	H	0.023457	0.695312	0.05389
52	H	0.012341	0.789194	0.061248
53	H	0.916251	0.810881	0.995559
54	H	0.836994	0.871627	0.000432
55	H	0.97026	0.962738	0.0038
56	H	0.026024	0.036209	0.998287
57	H	0.127564	0.837251	0.992437
58	H	0.188565	0.916989	0.992081
59	H	0.190448	0.042855	0.258269
60	H	0.283998	0.055317	0.251618
61	H	0.208422	0.009673	0.06204
62	H	0.302283	0.021723	0.05525
63	H	0.159213	0.127236	0.004436
64	H	0.079851	0.187942	0.008765
65	H	0.807611	0.081939	0.009522
66	H	0.868686	0.16176	0.009346
67	H	0.967617	0.192995	0.080525
68	H	0.956652	0.286753	0.087324
69	H	0.9757	0.208114	0.273853
70	H	0.964965	0.302094	0.280714
71	H	0.789648	0.978237	0.27298
72	H	0.695698	0.966575	0.279439
73	H	0.710598	0.95572	0.085958
74	H	0.804295	0.967543	0.079562
75	C	0.953911	0.361482	0.021718
76	H	0.944485	0.373079	0.055939
77	H	0.920845	0.373837	0.333997
78	C	0.636086	0.953973	0.020178
79	H	0.624452	0.94362	0.054201
80	H	0.623691	0.921498	0.331816
81	C	0.043724	0.637534	0.979961
82	H	0.073687	0.624655	0.003889
83	H	0.058021	0.626987	0.280096
84	C	0.360118	0.046164	0.982233
85	H	0.373122	0.075012	0.007078
86	H	0.370792	0.061822	0.282829
87	C	2.4e-05	0.443523	0.003085
88	C	0.00434	0.465969	0.293634
89	C	0.001956	0.521388	0.287378
90	C	0.995585	0.554686	0.325072
91	C	0.990939	0.532105	0.034505
92	H	0.008967	0.441749	0.266613
93	C	0.993487	0.47707	0.040239
94	H	0.986275	0.555776	0.061863
95	H	0.990778	0.461535	0.0716
96	N	0.005007	0.544194	0.244448
97	O	0.96773	0.528766	0.220036
98	O	0.047961	0.533022	0.225669
99	N	0.003345	0.388007	0.007159
100	H	0.033837	0.378803	0.028408
101	N	0.992788	0.610441	0.322432
102	H	0.964463	0.621197	0.299643
103	C	0.554069	0.000753	0.002793
104	C	0.53123	0.006225	0.293585
105	C	0.475731	0.004316	0.287686
106	C	0.442763	0.997201	0.325495
107	C	0.465728	0.99138	0.034676
108	H	0.555218	0.011398	0.26648
109	C	0.520836	0.99351	0.040062
110	H	0.44229	0.986192	0.062116
111	H	0.536654	0.989997	0.071266
112	N	0.4525	0.008553	0.24499
113	O	0.467411	0.971788	0.219827
114	O	0.4638	0.051886	0.226876
115	N	0.609644	0.003795	0.006558
116	H	0.619148	0.033778	0.028235
117	N	0.386963	0.994775	0.323182
118	H	0.375775	0.967314	0.299785
119	C	0.918605	0.85109	0.331398
120	C	0.875396	0.884174	0.334121
121	C	0.893704	0.936214	0.336453
122	N	0.947141	0.932717	0.335426
123	C	0.964318	0.882119	0.332378
124	C	0.016858	0.86232	0.330078
125	C	0.06318	0.893998	0.329904
126	N	0.066385	0.947243	0.331634
127	C	0.116966	0.964244	0.330041
128	C	0.148286	0.918929	0.327259
129	C	0.115151	0.875618	0.327501
130	C	0.135422	0.01721	0.330853
131	C	0.102574	0.062673	0.333717
132	N	0.049129	0.066144	0.33433
133	C	0.031921	0.116705	0.337658
134	C	0.077586	0.147751	0.339301
135	C	0.120827	0.114682	0.336869
136	C	0.979376	0.13651	0.339447
137	C	0.933034	0.104923	0.339341
138	N	0.929889	0.051667	0.338098
139	C	0.8793	0.034702	0.339414
140	C	0.84792	0.080036	0.34144
141	C	0.881058	0.123358	0.341253
142	C	0.860909	0.981726	0.338991
143	C	0.805402	0.973755	0.342349
144	C	0.781749	0.967006	0.384574
145	C	0.726804	0.959944	0.388272
146	C	0.694362	0.959731	0.349921
147	C	0.718295	0.966393	0.641047
148	C	0.773292	0.973238	0.637219
149	C	0.972544	0.192123	0.343242
150	C	0.966865	0.215672	0.38562
151	C	0.960313	0.270648	0.389555
152	C	0.959548	0.303224	0.35129
153	C	0.965271	0.279412	0.64227
154	C	0.971581	0.224393	0.638212
155	C	0.190956	0.02529	0.327452
156	C	0.213665	0.038684	0.619313
157	C	0.268545	0.046086	0.615469
158	C	0.30193	0.039918	0.319543
159	C	0.278999	0.026552	0.361008
160	C	0.224048	0.019487	0.365022
161	C	0.023694	0.806676	0.326057
162	C	0.03422	0.783926	0.617351
163	C	0.020022	0.773557	0.363806
164	C	0.026546	0.718588	0.359466
165	C	0.037425	0.695676	0.317487
166	C	0.041274	0.729048	0.613187
167	H	0.048676	0.713601	0.582318
168	H	0.03691	0.80717	0.589521
169	H	0.023457	0.695312	0.387223
170	H	0.012341	0.789194	0.394582
171	H	0.916251	0.810881	0.328892
172	H	0.836994	0.871627	0.333764
173	H	0.97026	0.962738	0.337132
174	H	0.026024	0.036209	0.331619
175	H	0.127564	0.837251	0.325772
176	H	0.188565	0.916989	0.325413
177	H	0.190448	0.042855	0.591603
178	H	0.283998	0.055317	0.58495
179	H	0.208422	0.009673	0.395375
180	H	0.302283	0.021723	0.388585
181	H	0.159213	0.127236	0.337768
182	H	0.079851	0.187942	0.342099
183	H	0.807611	0.081939	0.342855
184	H	0.868686	0.16176	0.342679
185	H	0.967617	0.192995	0.413857
186	H	0.956652	0.286753	0.420656
187	H	0.9757	0.208114	0.607187
188	H	0.964965	0.302094	0.614046
189	H	0.789648	0.978237	0.606314
190	H	0.695698	0.966575	0.61277
191	H	0.710598	0.95572	0.419291
192	H	0.804295	0.967543	0.412894
193	C	0.953911	0.361482	0.355052
194	H	0.944485	0.373079	0.389272
195	H	0.920845	0.373837	0.667328
196	C	0.636086	0.953973	0.353512
197	H	0.624452	0.94362	0.387536
198	H	0.623691	0.921498	0.66515
199	C	0.043724	0.637534	0.313294
200	H	0.073687	0.624655	0.337222
201	H	0.058021	0.626987	0.61343
202	C	0.360118	0.046164	0.315566
203	H	0.373122	0.075012	0.34041
204	H	0.370792	0.061822	0.616162
205	C	2.4e-05	0.443523	0.336419
206	C	0.00434	0.465969	0.626969
207	C	0.001956	0.521388	0.620712
208	C	0.995585	0.554686	0.658407
209	C	0.990939	0.532105	0.367837
210	H	0.008967	0.441749	0.599948
211	C	0.993487	0.47707	0.373571
212	H	0.986275	0.555776	0.395198
213	H	0.990778	0.461535	0.404932
214	N	0.005007	0.544194	0.577781
215	O	0.96773	0.528766	0.553369
216	O	0.047961	0.533022	0.559002
217	N	0.003345	0.388007	0.340493
218	H	0.033837	0.378803	0.361741
219	N	0.992788	0.610441	0.655765
220	H	0.964463	0.621197	0.632975
221	C	0.554069	0.000753	0.336126
222	C	0.53123	0.006225	0.626919
223	C	0.475731	0.004316	0.621019
224	C	0.442763	0.997201	0.65883
225	C	0.465728	0.99138	0.368011
226	H	0.555218	0.011398	0.599815
227	C	0.520836	0.99351	0.373394
228	H	0.44229	0.986192	0.395448
229	H	0.536654	0.989997	0.404599
230	N	0.4525	0.008553	0.578324
231	O	0.467411	0.971788	0.553162
232	O	0.4638	0.051886	0.560211
233	N	0.609644	0.003795	0.33989
234	H	0.619148	0.033778	0.361568
235	N	0.386963	0.994775	0.656515
236	H	0.375775	0.967314	0.633118
237	C	0.918605	0.85109	0.664733
238	C	0.875396	0.884174	0.667452
239	C	0.893704	0.936214	0.669784
240	N	0.947141	0.932717	0.668757
241	C	0.964318	0.882119	0.665713
242	C	0.016858	0.86232	0.663411
243	C	0.06318	0.893998	0.663237
244	N	0.066385	0.947243	0.664966
245	C	0.116966	0.964244	0.663374
246	C	0.148286	0.918929	0.660592
247	C	0.115151	0.875618	0.660835
248	C	0.135422	0.01721	0.664187
249	C	0.102574	0.062673	0.667048
250	N	0.049129	0.066144	0.667665
251	C	0.031921	0.116705	0.670989
252	C	0.077586	0.147751	0.672635
253	C	0.120827	0.114682	0.670203
254	C	0.979376	0.13651	0.672782
255	C	0.933034	0.104923	0.672672
256	N	0.929889	0.051667	0.671433
257	C	0.8793	0.034702	0.672745
258	C	0.84792	0.080036	0.674774
259	C	0.881058	0.123358	0.674587
260	C	0.860909	0.981726	0.672325
261	C	0.805402	0.973755	0.675683
262	C	0.781749	0.967006	0.717909
263	C	0.726804	0.959944	0.721606
264	C	0.694362	0.959731	0.683256
265	C	0.718295	0.966393	0.974378
266	C	0.773292	0.973238	0.97055
267	C	0.972544	0.192123	0.676573
268	C	0.966865	0.215672	0.718955
269	C	0.960313	0.270648	0.722886
270	C	0.959548	0.303224	0.684621
271	C	0.965271	0.279412	0.975604
272	C	0.971581	0.224393	0.971543
273	C	0.190956	0.02529	0.660785
274	C	0.213665	0.038684	0.952647
275	C	0.268545	0.046086	0.948803
276	C	0.30193	0.039918	0.652877
277	C	0.278999	0.026552	0.694342
278	C	0.224048	0.019487	0.698357
279	C	0.023694	0.806676	0.65939
280	C	0.03422	0.783926	0.950682
281	C	0.020022	0.773557	0.697137
282	C	0.026546	0.718588	0.692797
283	C	0.037425	0.695676	0.650821
284	C	0.041274	0.729048	0.946518
285	H	0.048676	0.713601	0.915649
286	H	0.03691	0.80717	0.922855
287	H	0.023457	0.695312	0.720557
288	H	0.012341	0.789194	0.727916
289	H	0.916251	0.810881	0.662225
290	H	0.836994	0.871627	0.667098
291	H	0.97026	0.962738	0.670466
292	H	0.026024	0.036209	0.664953
293	H	0.127564	0.837251	0.659106
294	H	0.188565	0.916989	0.658747
295	H	0.190448	0.042855	0.924937
296	H	0.283998	0.055317	0.918284
297	H	0.208422	0.009673	0.728706
298	H	0.302283	0.021723	0.721916
299	H	0.159213	0.127236	0.671103
300	H	0.079851	0.187942	0.67543
301	H	0.807611	0.081939	0.67619
302	H	0.868686	0.16176	0.676013
303	H	0.967617	0.192995	0.747191
304	H	0.956652	0.286753	0.753991
305	H	0.9757	0.208114	0.940521
306	H	0.964965	0.302094	0.947381
307	H	0.789648	0.978237	0.939648
308	H	0.695698	0.966575	0.946105
309	H	0.710598	0.95572	0.752625
310	H	0.804295	0.967543	0.746229
311	C	0.953911	0.361482	0.688386
312	H	0.944485	0.373079	0.722606
313	H	0.920845	0.373837	0.000662
314	C	0.636086	0.953973	0.686844
315	H	0.624452	0.94362	0.720867
316	H	0.623691	0.921498	0.998484
317	C	0.043724	0.637534	0.646627
318	H	0.073687	0.624655	0.670556
319	H	0.058021	0.626987	0.946761
320	C	0.360118	0.046164	0.648899
321	H	0.373122	0.075012	0.673745
322	H	0.370792	0.061822	0.949496
323	C	2.4e-05	0.443523	0.66975
324	C	0.00434	0.465969	0.9603
325	C	0.001956	0.521388	0.954043
326	C	0.995585	0.554686	0.991738
327	C	0.990939	0.532105	0.701172
328	H	0.008967	0.441749	0.933279
329	C	0.993487	0.47707	0.706905
330	H	0.986275	0.555776	0.728529
331	H	0.990778	0.461535	0.738267
332	N	0.005007	0.544194	0.911115
333	O	0.96773	0.528766	0.886703
334	O	0.047961	0.533022	0.892336
335	N	0.003345	0.388007	0.673828
336	H	0.033837	0.378803	0.695075
337	N	0.992788	0.610441	0.989099
338	H	0.964463	0.621197	0.966309
339	C	0.554069	0.000753	0.66946
340	C	0.53123	0.006225	0.960253
341	C	0.475731	0.004316	0.954353
342	C	0.442763	0.997201	0.992161
343	C	0.465728	0.99138	0.701342
344	H	0.555218	0.011398	0.933146
345	C	0.520836	0.99351	0.706729
346	H	0.44229	0.986192	0.728782
347	H	0.536654	0.989997	0.737934
348	N	0.4525	0.008553	0.911655
349	O	0.467411	0.971788	0.886493
350	O	0.4638	0.051886	0.893542
351	N	0.609644	0.003795	0.673225
352	H	0.619148	0.033778	0.694902
353	N	0.386963	0.994775	0.989849
354	H	0.375775	0.967314	0.966453
