data_C360H216N144O72_2018-02-15_10:32:45
#******************************************
#
# CIF file created by Zeo++
# Zeo++ is an open source package to
# analyze microporous materials
#
#*******************************************

_cell_length_a		43.6041   
_cell_length_b		43.6042   
_cell_length_c		30.1086   
_cell_angle_alpha		90   
_cell_angle_beta		90   
_cell_angle_gamma		120   

_symmetry_space_group_name_H-M		'P1'
_symmetry_Int_Tables_number		1
_symmetry_cell_setting		Monoclinic

loop_
_symmetry_equiv_pos_as_xyz
'+x,+y,+z'

loop_
_atom_site_label
_atom_site_type_symbol
_atom_site_fract_x
_atom_site_fract_y
_atom_site_fract_z
1	C	0.17584	0.368823	0.952501
2	C	0.139348	0.343022	0.952046
3	C	0.126638	0.306101	0.952435
4	C	0.152448	0.295419	0.952016
5	C	0.189368	0.319628	0.285774
6	C	0.200062	0.356127	0.951997
7	H	0.143826	0.269062	0.954431
8	H	0.226411	0.373851	0.954524
9	H	0.121615	0.351644	0.954484
10	C	0.18681	0.405311	0.95851
11	C	0.214891	0.308665	0.29179
12	C	0.090153	0.280576	0.958437
13	O	0.24897	0.334169	0.966105
14	O	0.161308	0.413881	0.966195
15	O	0.081581	0.246498	0.966089
16	C	0.318756	0.127569	0.043851
17	C	0.355247	0.153371	0.044349
18	C	0.367948	0.19029	0.043937
19	C	0.342135	0.20097	0.044341
20	C	0.305215	0.176757	0.377241
21	C	0.294533	0.140263	0.044306
22	H	0.350754	0.227326	0.04193
23	H	0.268178	0.122531	0.041848
24	H	0.372985	0.144756	0.041896
25	C	0.307793	0.09108	0.037863
26	C	0.279687	0.187713	0.371226
27	C	0.404434	0.215823	0.037957
28	O	0.245602	0.162206	0.030298
29	O	0.333299	0.082505	0.030234
30	O	0.413003	0.249899	0.030307
31	C	0.27748	0.271008	0.021362
32	N	0.25766	0.282724	0.000737
33	C	0.227694	0.261712	0.310457
34	C	0.217073	0.225364	0.308394
35	N	0.236895	0.21365	0.329018
36	C	0.266852	0.234657	0.019319
37	H	0.299817	0.288714	0.038013
38	H	0.194746	0.207662	0.291727
39	N	0.207498	0.274273	0.292158
40	H	0.185326	0.256604	0.278929
41	N	0.287069	0.222103	0.037568
42	H	0.309245	0.239773	0.050786
43	C	0.224489	0.005579	0.021357
44	N	0.212768	0.474041	0.000739
45	C	0.233767	0.465088	0.310425
46	C	0.270116	0.490809	0.308361
47	N	0.281838	0.022351	0.328976
48	C	0.260835	0.031308	0.01927
49	H	0.206792	0.01021	0.038029
50	H	0.287814	0.486175	0.291698
51	N	0.221202	0.432314	0.29217
52	H	0.238865	0.427807	0.278932
53	N	0.273401	0.064077	0.037536
54	H	0.255739	0.068583	0.050776
55	C	0.489924	0.218011	0.021382
56	N	0.021452	0.23782	0.000738
57	C	0.030403	0.267783	0.310448
58	C	0.004679	0.278407	0.308395
59	N	0.473152	0.258598	0.329039
60	C	0.464205	0.228646	0.01935
61	H	0.485294	0.195678	0.038039
62	H	0.009304	0.300734	0.291723
63	N	0.063156	0.287972	0.292135
64	H	0.06766	0.310142	0.2789
65	N	0.431441	0.208438	0.037621
66	H	0.426934	0.186264	0.050845
67	C	0.17584	0.368823	0.285835
68	C	0.139348	0.343022	0.28538
69	C	0.126638	0.306101	0.28577
70	C	0.152448	0.295419	0.285348
71	C	0.189368	0.319628	0.619108
72	C	0.200062	0.356127	0.285331
73	H	0.143826	0.269062	0.287763
74	H	0.226411	0.373851	0.287857
75	H	0.121615	0.351644	0.287817
76	C	0.18681	0.405311	0.291844
77	C	0.214891	0.308665	0.625123
78	C	0.090153	0.280576	0.29177
79	O	0.24897	0.334169	0.299438
80	O	0.161308	0.413881	0.29953
81	O	0.081581	0.246498	0.299423
82	C	0.318756	0.127569	0.377184
83	C	0.355247	0.153371	0.377683
84	C	0.367948	0.19029	0.377271
85	C	0.342135	0.20097	0.377673
86	C	0.305215	0.176757	0.710574
87	C	0.294533	0.140263	0.377639
88	H	0.350754	0.227326	0.375265
89	H	0.268178	0.122531	0.375182
90	H	0.372985	0.144756	0.375228
91	C	0.307793	0.09108	0.371196
92	C	0.279687	0.187713	0.704559
93	C	0.404434	0.215823	0.371292
94	O	0.245602	0.162206	0.363633
95	O	0.333299	0.082505	0.363567
96	O	0.413003	0.249899	0.36364
97	C	0.27748	0.271008	0.354696
98	N	0.25766	0.282724	0.33407
99	C	0.227694	0.261712	0.643789
100	C	0.217073	0.225364	0.641727
101	N	0.236895	0.21365	0.662352
102	C	0.266852	0.234657	0.352653
103	H	0.299817	0.288714	0.371346
104	H	0.194746	0.207662	0.62506
105	N	0.207498	0.274273	0.625492
106	H	0.185326	0.256604	0.612263
107	N	0.287069	0.222103	0.3709
108	H	0.309245	0.239773	0.384119
109	C	0.224489	0.005579	0.354692
110	N	0.212768	0.474041	0.334074
111	C	0.233767	0.465088	0.643759
112	C	0.270116	0.490809	0.641693
113	N	0.281838	0.022351	0.662309
114	C	0.260835	0.031308	0.352603
115	H	0.206792	0.01021	0.371362
116	H	0.287814	0.486175	0.62503
117	N	0.221202	0.432314	0.625502
118	H	0.238865	0.427807	0.612267
119	N	0.273401	0.064077	0.370871
120	H	0.255739	0.068583	0.384109
121	C	0.489924	0.218011	0.354716
122	N	0.021452	0.23782	0.33407
123	C	0.030403	0.267783	0.643782
124	C	0.004679	0.278407	0.64173
125	N	0.473152	0.258598	0.662372
126	C	0.464205	0.228646	0.352683
127	H	0.485294	0.195678	0.371372
128	H	0.009304	0.300734	0.625057
129	N	0.063156	0.287972	0.625469
130	H	0.06766	0.310142	0.612233
131	N	0.431441	0.208438	0.370954
132	H	0.426934	0.186264	0.384179
133	C	0.17584	0.368823	0.619168
134	C	0.139348	0.343022	0.618713
135	C	0.126638	0.306101	0.619102
136	C	0.152448	0.295419	0.618683
137	C	0.189368	0.319628	0.952442
138	C	0.200062	0.356127	0.618663
139	H	0.143826	0.269062	0.621098
140	H	0.226411	0.373851	0.621191
141	H	0.121615	0.351644	0.621151
142	C	0.18681	0.405311	0.625177
143	C	0.214891	0.308665	0.958457
144	C	0.090153	0.280576	0.625103
145	O	0.24897	0.334169	0.632772
146	O	0.161308	0.413881	0.632862
147	O	0.081581	0.246498	0.632756
148	C	0.318756	0.127569	0.710518
149	C	0.355247	0.153371	0.711016
150	C	0.367948	0.19029	0.710604
151	C	0.342135	0.20097	0.711009
152	C	0.305215	0.176757	0.043906
153	C	0.294533	0.140263	0.710973
154	H	0.350754	0.227326	0.708598
155	H	0.268178	0.122531	0.708515
156	H	0.372985	0.144756	0.708565
157	C	0.307793	0.09108	0.704529
158	C	0.279687	0.187713	0.037892
159	C	0.404434	0.215823	0.704626
160	O	0.245602	0.162206	0.696967
161	O	0.333299	0.082505	0.6969
162	O	0.413003	0.249899	0.696973
163	C	0.27748	0.271008	0.688029
164	N	0.25766	0.282724	0.667404
165	C	0.227694	0.261712	0.977122
166	C	0.217073	0.225364	0.97506
167	N	0.236895	0.21365	0.995685
168	C	0.266852	0.234657	0.685986
169	H	0.299817	0.288714	0.704679
170	H	0.194746	0.207662	0.958393
171	N	0.207498	0.274273	0.958825
172	H	0.185326	0.256604	0.945596
173	N	0.287069	0.222103	0.704237
174	H	0.309245	0.239773	0.717452
175	C	0.224489	0.005579	0.688026
176	N	0.212768	0.474041	0.667407
177	C	0.233767	0.465088	0.977092
178	C	0.270116	0.490809	0.97503
179	N	0.281838	0.022351	0.995642
180	C	0.260835	0.031308	0.685937
181	H	0.206792	0.01021	0.704695
182	H	0.287814	0.486175	0.958367
183	N	0.221202	0.432314	0.958835
184	H	0.238865	0.427807	0.9456
185	N	0.273401	0.064077	0.704204
186	H	0.255739	0.068583	0.717442
187	C	0.489924	0.218011	0.688049
188	N	0.021452	0.23782	0.667404
189	C	0.030403	0.267783	0.977116
190	C	0.004679	0.278407	0.975063
191	N	0.473152	0.258598	0.995705
192	C	0.464205	0.228646	0.686016
193	H	0.485294	0.195678	0.704705
194	H	0.009304	0.300734	0.95839
195	N	0.063156	0.287972	0.958802
196	H	0.06766	0.310142	0.945567
197	N	0.431441	0.208438	0.704287
198	H	0.426934	0.186264	0.717512
199	C	0.175841	0.868824	0.952501
200	C	0.139347	0.84302	0.952046
201	C	0.12664	0.806102	0.952435
202	C	0.152448	0.795417	0.952016
203	C	0.189369	0.819629	0.285774
204	C	0.200061	0.856126	0.951997
205	H	0.143827	0.76906	0.954431
206	H	0.226412	0.873852	0.954524
207	H	0.121615	0.851642	0.954484
208	C	0.186811	0.905312	0.95851
209	C	0.214892	0.808666	0.29179
210	C	0.090153	0.780574	0.958437
211	O	0.24897	0.834167	0.966105
212	O	0.161308	0.913879	0.966195
213	O	0.08158	0.746498	0.966089
214	C	0.318755	0.627567	0.043851
215	C	0.355248	0.653371	0.044349
216	C	0.367948	0.690289	0.043937
217	C	0.342135	0.700969	0.044341
218	C	0.305215	0.676757	0.377241
219	C	0.294533	0.640263	0.044306
220	H	0.350754	0.727325	0.04193
221	H	0.268179	0.622531	0.041848
222	H	0.372986	0.644756	0.041896
223	C	0.307792	0.591079	0.037863
224	C	0.279687	0.687712	0.371226
225	C	0.404434	0.715822	0.037957
226	O	0.245602	0.662205	0.030298
227	O	0.333298	0.582504	0.030234
228	O	0.413002	0.749898	0.030307
229	C	0.27748	0.771007	0.021362
230	N	0.257661	0.782725	0.000737
231	C	0.227694	0.761712	0.310457
232	C	0.217073	0.725363	0.308394
233	N	0.236894	0.713648	0.329018
234	C	0.266853	0.734658	0.019319
235	H	0.299816	0.788712	0.038013
236	H	0.194745	0.70766	0.291727
237	N	0.207497	0.774272	0.292158
238	H	0.185326	0.756603	0.278929
239	N	0.28707	0.722103	0.037568
240	H	0.309245	0.739772	0.050786
241	C	0.224489	0.505578	0.021357
242	N	0.212767	0.97404	0.000739
243	C	0.233767	0.965086	0.310425
244	C	0.270116	0.990808	0.308361
245	N	0.281838	0.522349	0.328976
246	C	0.260834	0.531307	0.01927
247	H	0.206792	0.51021	0.038029
248	H	0.287815	0.986176	0.291699
249	N	0.221202	0.932316	0.29217
250	H	0.238866	0.927808	0.278932
251	N	0.273401	0.564075	0.037536
252	H	0.255739	0.568583	0.050776
253	C	0.489923	0.718009	0.021382
254	N	0.021453	0.73782	0.000738
255	C	0.030402	0.767781	0.310448
256	C	0.004679	0.778408	0.308395
257	N	0.473152	0.758597	0.329039
258	C	0.464205	0.728644	0.01935
259	H	0.485294	0.695678	0.038039
260	H	0.009303	0.800732	0.291723
261	N	0.063155	0.787971	0.292135
262	H	0.06766	0.810141	0.2789
263	N	0.431441	0.708439	0.037621
264	H	0.426934	0.686263	0.050845
265	C	0.175841	0.868824	0.285835
266	C	0.139347	0.84302	0.28538
267	C	0.12664	0.806102	0.28577
268	C	0.152448	0.795417	0.285348
269	C	0.189369	0.819629	0.619108
270	C	0.200061	0.856126	0.285331
271	H	0.143827	0.76906	0.287763
272	H	0.226412	0.873852	0.287857
273	H	0.121615	0.851642	0.287817
274	C	0.186811	0.905312	0.291844
275	C	0.214892	0.808666	0.625123
276	C	0.090153	0.780574	0.29177
277	O	0.24897	0.834167	0.299438
278	O	0.161308	0.913879	0.29953
279	O	0.08158	0.746498	0.299423
280	C	0.318755	0.627567	0.377184
281	C	0.355248	0.653371	0.377683
282	C	0.367948	0.690289	0.377271
283	C	0.342135	0.700969	0.377673
284	C	0.305215	0.676757	0.710574
285	C	0.294533	0.640263	0.377639
286	H	0.350754	0.727325	0.375265
287	H	0.268179	0.622531	0.375182
288	H	0.372986	0.644756	0.375228
289	C	0.307792	0.591079	0.371196
290	C	0.279687	0.687712	0.704559
291	C	0.404434	0.715822	0.371292
292	O	0.245602	0.662205	0.363633
293	O	0.333298	0.582504	0.363567
294	O	0.413002	0.749898	0.36364
295	C	0.27748	0.771007	0.354696
296	N	0.257661	0.782725	0.33407
297	C	0.227694	0.761712	0.643789
298	C	0.217073	0.725363	0.641727
299	N	0.236894	0.713648	0.662352
300	C	0.266853	0.734658	0.352653
301	H	0.299816	0.788712	0.371346
302	H	0.194745	0.70766	0.62506
303	N	0.207497	0.774272	0.625492
304	H	0.185326	0.756603	0.612263
305	N	0.28707	0.722103	0.3709
306	H	0.309245	0.739772	0.384119
307	C	0.224489	0.505578	0.354692
308	N	0.212767	0.97404	0.334074
309	C	0.233767	0.965086	0.643759
310	C	0.270116	0.990808	0.641693
311	N	0.281838	0.522349	0.662309
312	C	0.260834	0.531307	0.352603
313	H	0.206792	0.51021	0.371362
314	H	0.287815	0.986176	0.62503
315	N	0.221202	0.932316	0.625502
316	H	0.238866	0.927808	0.612267
317	N	0.273401	0.564075	0.370871
318	H	0.255739	0.568583	0.384109
319	C	0.489923	0.718009	0.354716
320	N	0.021453	0.73782	0.33407
321	C	0.030402	0.767781	0.643782
322	C	0.004679	0.778408	0.64173
323	N	0.473152	0.758597	0.662372
324	C	0.464205	0.728644	0.352683
325	H	0.485294	0.695678	0.371372
326	H	0.009303	0.800732	0.625057
327	N	0.063155	0.787971	0.625469
328	H	0.06766	0.810141	0.612233
329	N	0.431441	0.708439	0.370954
330	H	0.426934	0.686263	0.384179
331	C	0.175841	0.868824	0.619168
332	C	0.139347	0.84302	0.618713
333	C	0.12664	0.806102	0.619102
334	C	0.152448	0.795417	0.618683
335	C	0.189369	0.819629	0.952442
336	C	0.200061	0.856126	0.618663
337	H	0.143827	0.76906	0.621098
338	H	0.226412	0.873852	0.621191
339	H	0.121615	0.851642	0.621151
340	C	0.186811	0.905312	0.625177
341	C	0.214892	0.808666	0.958457
342	C	0.090153	0.780574	0.625103
343	O	0.24897	0.834167	0.632772
344	O	0.161308	0.913879	0.632862
345	O	0.08158	0.746498	0.632756
346	C	0.318755	0.627567	0.710518
347	C	0.355248	0.653371	0.711016
348	C	0.367948	0.690289	0.710604
349	C	0.342135	0.700969	0.711009
350	C	0.305215	0.676757	0.043906
351	C	0.294533	0.640263	0.710973
352	H	0.350754	0.727325	0.708598
353	H	0.268179	0.622531	0.708515
354	H	0.372986	0.644756	0.708565
355	C	0.307792	0.591079	0.704529
356	C	0.279687	0.687712	0.037892
357	C	0.404434	0.715822	0.704626
358	O	0.245602	0.662205	0.696967
359	O	0.333298	0.582504	0.6969
360	O	0.413002	0.749898	0.696973
361	C	0.27748	0.771007	0.688029
362	N	0.257661	0.782725	0.667404
363	C	0.227694	0.761712	0.977122
364	C	0.217073	0.725363	0.97506
365	N	0.236894	0.713648	0.995685
366	C	0.266853	0.734658	0.685986
367	H	0.299816	0.788712	0.704679
368	H	0.194745	0.70766	0.958393
369	N	0.207497	0.774272	0.958825
370	H	0.185326	0.756603	0.945596
371	N	0.28707	0.722103	0.704237
372	H	0.309245	0.739772	0.717452
373	C	0.224489	0.505578	0.688026
374	N	0.212767	0.97404	0.667407
375	C	0.233767	0.965086	0.977092
376	C	0.270116	0.990808	0.97503
377	N	0.281838	0.522349	0.995642
378	C	0.260834	0.531307	0.685937
379	H	0.206792	0.51021	0.704695
380	H	0.287815	0.986176	0.958367
381	N	0.221202	0.932316	0.958835
382	H	0.238866	0.927808	0.9456
383	N	0.273401	0.564075	0.704204
384	H	0.255739	0.568583	0.717442
385	C	0.489923	0.718009	0.688049
386	N	0.021453	0.73782	0.667404
387	C	0.030402	0.767781	0.977116
388	C	0.004679	0.778408	0.975063
389	N	0.473152	0.758597	0.995705
390	C	0.464205	0.728644	0.686016
391	H	0.485294	0.695678	0.704705
392	H	0.009303	0.800732	0.95839
393	N	0.063155	0.787971	0.958802
394	H	0.06766	0.810141	0.945567
395	N	0.431441	0.708439	0.704287
396	H	0.426934	0.686263	0.717512
397	C	0.67584	0.368823	0.952501
398	C	0.639348	0.343022	0.952046
399	C	0.62664	0.306101	0.952435
400	C	0.652449	0.295419	0.952016
401	C	0.689368	0.319628	0.285774
402	C	0.700061	0.356127	0.951997
403	H	0.643827	0.269062	0.954431
404	H	0.726412	0.373851	0.954524
405	H	0.621615	0.351644	0.954484
406	C	0.68681	0.405311	0.95851
407	C	0.714892	0.308665	0.29179
408	C	0.590154	0.280576	0.958437
409	O	0.748971	0.334169	0.966105
410	O	0.661309	0.413881	0.966195
411	O	0.58158	0.246498	0.966089
412	C	0.818755	0.127569	0.043851
413	C	0.855248	0.153371	0.044349
414	C	0.867949	0.19029	0.043937
415	C	0.842136	0.20097	0.044341
416	C	0.805215	0.176757	0.377241
417	C	0.794534	0.140263	0.044306
418	H	0.850755	0.227326	0.04193
419	H	0.768178	0.122531	0.041848
420	H	0.872986	0.144756	0.041896
421	C	0.807794	0.09108	0.037863
422	C	0.779687	0.187713	0.371226
423	C	0.904436	0.215823	0.037957
424	O	0.745602	0.162206	0.030298
425	O	0.833297	0.082505	0.030234
426	O	0.913002	0.249899	0.030307
427	C	0.777481	0.271008	0.021362
428	N	0.75766	0.282724	0.000737
429	C	0.727694	0.261712	0.310457
430	C	0.717073	0.225364	0.308394
431	N	0.736894	0.21365	0.329018
432	C	0.766853	0.234657	0.019319
433	H	0.799816	0.288714	0.038013
434	H	0.694746	0.207662	0.291727
435	N	0.707499	0.274273	0.292158
436	H	0.685326	0.256604	0.278929
437	N	0.787071	0.222103	0.037568
438	H	0.809246	0.239773	0.050786
439	C	0.72449	0.005579	0.021357
440	N	0.712768	0.474041	0.000739
441	C	0.733768	0.465088	0.310425
442	C	0.770117	0.490809	0.308361
443	N	0.781839	0.022351	0.328976
444	C	0.760834	0.031308	0.01927
445	H	0.706791	0.01021	0.038029
446	H	0.787814	0.486175	0.291698
447	N	0.721202	0.432314	0.29217
448	H	0.738866	0.427807	0.278932
449	N	0.773402	0.064077	0.037536
450	H	0.75574	0.068583	0.050776
451	C	0.989923	0.218011	0.021382
452	N	0.521453	0.23782	0.000738
453	C	0.530403	0.267783	0.310448
454	C	0.504679	0.278407	0.308395
455	N	0.973151	0.258598	0.329039
456	C	0.964207	0.228646	0.01935
457	H	0.985295	0.195678	0.038039
458	H	0.509304	0.300734	0.291723
459	N	0.563156	0.287972	0.292135
460	H	0.567659	0.310142	0.2789
461	N	0.93144	0.208438	0.037621
462	H	0.926935	0.186264	0.050845
463	C	0.67584	0.368823	0.285835
464	C	0.639348	0.343022	0.28538
465	C	0.62664	0.306101	0.28577
466	C	0.652449	0.295419	0.285348
467	C	0.689368	0.319628	0.619108
468	C	0.700061	0.356127	0.285331
469	H	0.643827	0.269062	0.287763
470	H	0.726412	0.373851	0.287857
471	H	0.621615	0.351644	0.287817
472	C	0.68681	0.405311	0.291844
473	C	0.714892	0.308665	0.625123
474	C	0.590154	0.280576	0.29177
475	O	0.748971	0.334169	0.299438
476	O	0.661309	0.413881	0.29953
477	O	0.58158	0.246498	0.299423
478	C	0.818755	0.127569	0.377184
479	C	0.855248	0.153371	0.377683
480	C	0.867949	0.19029	0.377271
481	C	0.842136	0.20097	0.377673
482	C	0.805215	0.176757	0.710574
483	C	0.794534	0.140263	0.377639
484	H	0.850755	0.227326	0.375265
485	H	0.768178	0.122531	0.375182
486	H	0.872986	0.144756	0.375228
487	C	0.807794	0.09108	0.371196
488	C	0.779687	0.187713	0.704559
489	C	0.904436	0.215823	0.371292
490	O	0.745602	0.162206	0.363633
491	O	0.833297	0.082505	0.363567
492	O	0.913002	0.249899	0.36364
493	C	0.777481	0.271008	0.354696
494	N	0.75766	0.282724	0.33407
495	C	0.727694	0.261712	0.643789
496	C	0.717073	0.225364	0.641727
497	N	0.736894	0.21365	0.662352
498	C	0.766853	0.234657	0.352653
499	H	0.799816	0.288714	0.371346
500	H	0.694746	0.207662	0.62506
501	N	0.707499	0.274273	0.625492
502	H	0.685326	0.256604	0.612263
503	N	0.787071	0.222103	0.3709
504	H	0.809246	0.239773	0.384119
505	C	0.72449	0.005579	0.354692
506	N	0.712768	0.474041	0.334074
507	C	0.733768	0.465088	0.643759
508	C	0.770117	0.490809	0.641693
509	N	0.781839	0.022351	0.662309
510	C	0.760834	0.031308	0.352603
511	H	0.706791	0.01021	0.371362
512	H	0.787814	0.486175	0.62503
513	N	0.721202	0.432314	0.625502
514	H	0.738866	0.427807	0.612267
515	N	0.773402	0.064077	0.370871
516	H	0.75574	0.068583	0.384109
517	C	0.989923	0.218011	0.354716
518	N	0.521453	0.23782	0.33407
519	C	0.530403	0.267783	0.643782
520	C	0.504679	0.278407	0.64173
521	N	0.973151	0.258598	0.662372
522	C	0.964207	0.228646	0.352683
523	H	0.985295	0.195678	0.371372
524	H	0.509304	0.300734	0.625057
525	N	0.563156	0.287972	0.625469
526	H	0.567659	0.310142	0.612233
527	N	0.93144	0.208438	0.370954
528	H	0.926935	0.186264	0.384179
529	C	0.67584	0.368823	0.619168
530	C	0.639348	0.343022	0.618713
531	C	0.62664	0.306101	0.619102
532	C	0.652449	0.295419	0.618683
533	C	0.689368	0.319628	0.952442
534	C	0.700061	0.356127	0.618663
535	H	0.643827	0.269062	0.621098
536	H	0.726412	0.373851	0.621191
537	H	0.621615	0.351644	0.621151
538	C	0.68681	0.405311	0.625177
539	C	0.714892	0.308665	0.958457
540	C	0.590154	0.280576	0.625103
541	O	0.748971	0.334169	0.632772
542	O	0.661309	0.413881	0.632862
543	O	0.58158	0.246498	0.632756
544	C	0.818755	0.127569	0.710518
545	C	0.855248	0.153371	0.711016
546	C	0.867949	0.19029	0.710604
547	C	0.842136	0.20097	0.711009
548	C	0.805215	0.176757	0.043906
549	C	0.794534	0.140263	0.710973
550	H	0.850755	0.227326	0.708598
551	H	0.768178	0.122531	0.708515
552	H	0.872986	0.144756	0.708565
553	C	0.807794	0.09108	0.704529
554	C	0.779687	0.187713	0.037892
555	C	0.904436	0.215823	0.704626
556	O	0.745602	0.162206	0.696967
557	O	0.833297	0.082505	0.6969
558	O	0.913002	0.249899	0.696973
559	C	0.777481	0.271008	0.688029
560	N	0.75766	0.282724	0.667404
561	C	0.727694	0.261712	0.977122
562	C	0.717073	0.225364	0.97506
563	N	0.736894	0.21365	0.995685
564	C	0.766853	0.234657	0.685986
565	H	0.799816	0.288714	0.704679
566	H	0.694746	0.207662	0.958393
567	N	0.707499	0.274273	0.958825
568	H	0.685326	0.256604	0.945596
569	N	0.787071	0.222103	0.704237
570	H	0.809246	0.239773	0.717452
571	C	0.72449	0.005579	0.688026
572	N	0.712768	0.474041	0.667407
573	C	0.733768	0.465088	0.977092
574	C	0.770117	0.490809	0.97503
575	N	0.781839	0.022351	0.995642
576	C	0.760834	0.031308	0.685937
577	H	0.706791	0.01021	0.704695
578	H	0.787814	0.486175	0.958367
579	N	0.721202	0.432314	0.958835
580	H	0.738866	0.427807	0.9456
581	N	0.773402	0.064077	0.704204
582	H	0.75574	0.068583	0.717442
583	C	0.989923	0.218011	0.688049
584	N	0.521453	0.23782	0.667404
585	C	0.530403	0.267783	0.977116
586	C	0.504679	0.278407	0.975063
587	N	0.973151	0.258598	0.995705
588	C	0.964207	0.228646	0.686016
589	H	0.985295	0.195678	0.704705
590	H	0.509304	0.300734	0.95839
591	N	0.563156	0.287972	0.958802
592	H	0.567659	0.310142	0.945567
593	N	0.93144	0.208438	0.704287
594	H	0.926935	0.186264	0.717512
595	C	0.675842	0.868824	0.952501
596	C	0.639348	0.84302	0.952046
597	C	0.62664	0.806102	0.952435
598	C	0.652449	0.795417	0.952016
599	C	0.689369	0.819629	0.285774
600	C	0.700061	0.856126	0.951997
601	H	0.643825	0.76906	0.954431
602	H	0.726411	0.873852	0.954524
603	H	0.621615	0.851642	0.954484
604	C	0.686812	0.905312	0.95851
605	C	0.714892	0.808666	0.29179
606	C	0.590153	0.780574	0.958437
607	O	0.748971	0.834167	0.966105
608	O	0.661307	0.913879	0.966195
609	O	0.581581	0.746498	0.966089
610	C	0.818755	0.627567	0.043851
611	C	0.855249	0.653371	0.044349
612	C	0.867949	0.690289	0.043937
613	C	0.842134	0.700969	0.044341
614	C	0.805216	0.676757	0.377241
615	C	0.794532	0.640263	0.044306
616	H	0.850753	0.727325	0.04193
617	H	0.768179	0.622531	0.041848
618	H	0.872985	0.644756	0.041896
619	C	0.807792	0.591079	0.037863
620	C	0.779687	0.687712	0.371226
621	C	0.904434	0.715822	0.037957
622	O	0.745603	0.662205	0.030298
623	O	0.833298	0.582504	0.030234
624	O	0.913003	0.749898	0.030307
625	C	0.777479	0.771007	0.021362
626	N	0.757661	0.782725	0.000737
627	C	0.727693	0.761712	0.310457
628	C	0.717073	0.725363	0.308394
629	N	0.736894	0.713648	0.329018
630	C	0.766852	0.734658	0.019319
631	H	0.799817	0.788712	0.038013
632	H	0.694746	0.70766	0.291727
633	N	0.707499	0.774272	0.292158
634	H	0.685326	0.756603	0.278929
635	N	0.78707	0.722103	0.037568
636	H	0.809247	0.739772	0.050786
637	C	0.724488	0.505578	0.021357
638	N	0.712768	0.97404	0.000739
639	C	0.733766	0.965086	0.310425
640	C	0.770115	0.990808	0.308361
641	N	0.781839	0.522349	0.328976
642	C	0.760835	0.531307	0.01927
643	H	0.706792	0.51021	0.038029
644	H	0.787816	0.986176	0.291699
645	N	0.721204	0.932316	0.29217
646	H	0.738866	0.927808	0.278932
647	N	0.773403	0.564075	0.037536
648	H	0.755738	0.568583	0.050776
649	C	0.989923	0.718009	0.021382
650	N	0.521453	0.73782	0.000738
651	C	0.530403	0.767781	0.310448
652	C	0.50468	0.778408	0.308395
653	N	0.973152	0.758597	0.329039
654	C	0.964205	0.728644	0.01935
655	H	0.985293	0.695678	0.038039
656	H	0.509304	0.800732	0.291723
657	N	0.563156	0.787971	0.292135
658	H	0.56766	0.810141	0.2789
659	N	0.931441	0.708439	0.037621
660	H	0.926935	0.686263	0.050845
661	C	0.675842	0.868824	0.285835
662	C	0.639348	0.84302	0.28538
663	C	0.62664	0.806102	0.28577
664	C	0.652449	0.795417	0.285348
665	C	0.689369	0.819629	0.619108
666	C	0.700061	0.856126	0.285331
667	H	0.643825	0.76906	0.287763
668	H	0.726411	0.873852	0.287857
669	H	0.621615	0.851642	0.287817
670	C	0.686812	0.905312	0.291844
671	C	0.714892	0.808666	0.625123
672	C	0.590153	0.780574	0.29177
673	O	0.748971	0.834167	0.299438
674	O	0.661307	0.913879	0.29953
675	O	0.581581	0.746498	0.299423
676	C	0.818755	0.627567	0.377184
677	C	0.855249	0.653371	0.377683
678	C	0.867949	0.690289	0.377271
679	C	0.842134	0.700969	0.377673
680	C	0.805216	0.676757	0.710574
681	C	0.794532	0.640263	0.377639
682	H	0.850753	0.727325	0.375265
683	H	0.768179	0.622531	0.375182
684	H	0.872985	0.644756	0.375228
685	C	0.807792	0.591079	0.371196
686	C	0.779687	0.687712	0.704559
687	C	0.904434	0.715822	0.371292
688	O	0.745603	0.662205	0.363633
689	O	0.833298	0.582504	0.363567
690	O	0.913003	0.749898	0.36364
691	C	0.777479	0.771007	0.354696
692	N	0.757661	0.782725	0.33407
693	C	0.727693	0.761712	0.643789
694	C	0.717073	0.725363	0.641727
695	N	0.736894	0.713648	0.662352
696	C	0.766852	0.734658	0.352653
697	H	0.799817	0.788712	0.371346
698	H	0.694746	0.70766	0.62506
699	N	0.707499	0.774272	0.625492
700	H	0.685326	0.756603	0.612263
701	N	0.78707	0.722103	0.3709
702	H	0.809247	0.739772	0.384119
703	C	0.724488	0.505578	0.354692
704	N	0.712768	0.97404	0.334074
705	C	0.733766	0.965086	0.643759
706	C	0.770115	0.990808	0.641693
707	N	0.781839	0.522349	0.662309
708	C	0.760835	0.531307	0.352603
709	H	0.706792	0.51021	0.371362
710	H	0.787816	0.986176	0.62503
711	N	0.721204	0.932316	0.625502
712	H	0.738866	0.927808	0.612267
713	N	0.773403	0.564075	0.370871
714	H	0.755738	0.568583	0.384109
715	C	0.989923	0.718009	0.354716
716	N	0.521453	0.73782	0.33407
717	C	0.530403	0.767781	0.643782
718	C	0.50468	0.778408	0.64173
719	N	0.973152	0.758597	0.662372
720	C	0.964205	0.728644	0.352683
721	H	0.985293	0.695678	0.371372
722	H	0.509304	0.800732	0.625057
723	N	0.563156	0.787971	0.625469
724	H	0.56766	0.810141	0.612233
725	N	0.931441	0.708439	0.370954
726	H	0.926935	0.686263	0.384179
727	C	0.675842	0.868824	0.619168
728	C	0.639348	0.84302	0.618713
729	C	0.62664	0.806102	0.619102
730	C	0.652449	0.795417	0.618683
731	C	0.689369	0.819629	0.952442
732	C	0.700061	0.856126	0.618663
733	H	0.643825	0.76906	0.621098
734	H	0.726411	0.873852	0.621191
735	H	0.621615	0.851642	0.621151
736	C	0.686812	0.905312	0.625177
737	C	0.714892	0.808666	0.958457
738	C	0.590153	0.780574	0.625103
739	O	0.748971	0.834167	0.632772
740	O	0.661307	0.913879	0.632862
741	O	0.581581	0.746498	0.632756
742	C	0.818755	0.627567	0.710518
743	C	0.855249	0.653371	0.711016
744	C	0.867949	0.690289	0.710604
745	C	0.842134	0.700969	0.711009
746	C	0.805216	0.676757	0.043906
747	C	0.794532	0.640263	0.710973
748	H	0.850753	0.727325	0.708598
749	H	0.768179	0.622531	0.708515
750	H	0.872985	0.644756	0.708565
751	C	0.807792	0.591079	0.704529
752	C	0.779687	0.687712	0.037892
753	C	0.904434	0.715822	0.704626
754	O	0.745603	0.662205	0.696967
755	O	0.833298	0.582504	0.6969
756	O	0.913003	0.749898	0.696973
757	C	0.777479	0.771007	0.688029
758	N	0.757661	0.782725	0.667404
759	C	0.727693	0.761712	0.977122
760	C	0.717073	0.725363	0.97506
761	N	0.736894	0.713648	0.995685
762	C	0.766852	0.734658	0.685986
763	H	0.799817	0.788712	0.704679
764	H	0.694746	0.70766	0.958393
765	N	0.707499	0.774272	0.958825
766	H	0.685326	0.756603	0.945596
767	N	0.78707	0.722103	0.704237
768	H	0.809247	0.739772	0.717452
769	C	0.724488	0.505578	0.688026
770	N	0.712768	0.97404	0.667407
771	C	0.733766	0.965086	0.977092
772	C	0.770115	0.990808	0.97503
773	N	0.781839	0.522349	0.995642
774	C	0.760835	0.531307	0.685937
775	H	0.706792	0.51021	0.704695
776	H	0.787816	0.986176	0.958367
777	N	0.721204	0.932316	0.958835
778	H	0.738866	0.927808	0.9456
779	N	0.773403	0.564075	0.704204
780	H	0.755738	0.568583	0.717442
781	C	0.989923	0.718009	0.688049
782	N	0.521453	0.73782	0.667404
783	C	0.530403	0.767781	0.977116
784	C	0.50468	0.778408	0.975063
785	N	0.973152	0.758597	0.995705
786	C	0.964205	0.728644	0.686016
787	H	0.985293	0.695678	0.704705
788	H	0.509304	0.800732	0.95839
789	N	0.563156	0.787971	0.958802
790	H	0.56766	0.810141	0.945567
791	N	0.931441	0.708439	0.704287
792	H	0.926935	0.686263	0.717512
