data_C171H99N45O9_2018-02-15_10:42:28
#******************************************
#
# CIF file created by Zeo++
# Zeo++ is an open source package to
# analyze microporous materials
#
#*******************************************

_cell_length_a		29.4126   
_cell_length_b		29.4126   
_cell_length_c		29.9596   
_cell_angle_alpha		90   
_cell_angle_beta		90   
_cell_angle_gamma		120   

_symmetry_space_group_name_H-M		'P1'
_symmetry_Int_Tables_number		1
_symmetry_cell_setting		Monoclinic

loop_
_symmetry_equiv_pos_as_xyz
'+x,+y,+z'

loop_
_atom_site_label
_atom_site_type_symbol
_atom_site_fract_x
_atom_site_fract_y
_atom_site_fract_z
1	C	0.360041	0.721414	0.999291
2	N	0.386996	0.694977	0.999308
3	C	0.362736	0.64166	0.999301
4	N	0.309345	0.614705	0.999318
5	C	0.280288	0.638967	0.999301
6	N	0.306722	0.692355	0.999311
7	C	0.392073	0.615113	0.999458
8	C	0.44556	0.641055	0.986574
9	C	0.474453	0.614721	0.986484
10	C	0.451261	0.561674	9.6e-05
11	C	0.398048	0.535917	0.013612
12	C	0.36884	0.561902	0.012744
13	C	0.386588	0.777299	0.999441
14	C	0.439794	0.807281	0.012735
15	C	0.465768	0.862475	0.013624
16	C	0.440012	0.889924	8.6e-05
17	C	0.386969	0.860064	0.986457
18	C	0.360643	0.804839	0.986554
19	C	0.224404	0.609629	0.999465
20	C	0.194425	0.632854	0.012761
21	C	0.139229	0.60365	0.013621
22	C	0.111775	0.550438	9.6e-05
23	C	0.141632	0.527248	0.986481
24	C	0.196858	0.556135	0.986594
25	H	0.504219	0.882489	0.023565
26	H	0.460133	0.789253	0.022821
27	H	0.366387	0.878186	0.977388
28	H	0.322229	0.784982	0.976551
29	H	0.212456	0.671238	0.022802
30	H	0.119217	0.622093	0.023549
31	H	0.216713	0.537581	0.976584
32	H	0.123503	0.488539	0.977425
33	H	0.330466	0.541562	0.022815
34	H	0.379605	0.497463	0.023553
35	H	0.513158	0.635296	0.977412
36	H	0.464122	0.67947	0.976577
37	C	0.639561	0.279829	0.997732
38	N	0.615131	0.308731	0.997843
39	C	0.641632	0.362129	0.997742
40	N	0.694962	0.386559	0.997853
41	C	0.721857	0.360057	0.997749
42	N	0.692958	0.306726	0.997846
43	C	0.614728	0.391217	0.998871
44	C	0.559614	0.365803	0.005018
45	C	0.533232	0.39455	0.00749
46	C	0.561009	0.449889	0.004022
47	C	0.615732	0.475399	0.996521
48	C	0.642132	0.446623	0.994405
49	C	0.610457	0.223838	0.998864
50	C	0.555048	0.195854	0.994431
51	C	0.526253	0.14068	0.996578
52	C	0.551751	0.11145	0.004045
53	C	0.607092	0.138992	0.007482
54	C	0.635856	0.19412	0.004995
55	C	0.77785	0.386956	0.998881
56	C	0.805845	0.359547	0.994418
57	C	0.861025	0.385941	0.996551
58	C	0.89024	0.440667	0.004036
59	C	0.862682	0.468447	0.00751
60	C	0.807555	0.442069	0.005034
61	H	0.486222	0.122066	0.99374
62	H	0.534745	0.215319	0.989632
63	H	0.627085	0.119105	0.011709
64	H	0.67579	0.212258	0.008258
65	H	0.78639	0.31978	0.989601
66	H	0.879646	0.364537	0.993687
67	H	0.789405	0.463853	0.008313
68	H	0.882557	0.508326	0.011741
69	H	0.681901	0.466935	0.989591
70	H	0.637138	0.515431	0.993674
71	H	0.493353	0.374545	0.011728
72	H	0.537834	0.325873	0.008303
73	C	0.53466	0.479223	0.006807
74	N	0.543686	0.514069	0.306695
75	C	0.519071	0.542434	0.302994
76	C	0.480358	0.534923	0.001272
77	N	0.471725	0.500278	0.034727
78	C	0.496881	0.47238	0.039743
79	H	0.527526	0.567072	0.276361
80	C	0.4848	0.441276	0.078828
81	O	0.435816	0.420241	0.096035
82	N	0.521146	0.437161	0.103417
83	H	0.558217	0.456555	0.095815
84	H	0.511246	0.418137	0.131554
85	C	0.522379	0.055773	0.006877
86	N	0.487585	0.029955	0.306732
87	C	0.459207	0.976976	0.30303
88	C	0.466736	0.94577	0.001292
89	N	0.501367	0.971779	0.034757
90	C	0.529219	0.024827	0.039806
91	H	0.434659	0.960806	0.276339
92	C	0.560408	0.043876	0.078844
93	O	0.581262	0.015812	0.096158
94	N	0.564623	0.084387	0.103427
95	H	0.545099	0.101949	0.09588
96	H	0.583449	0.093338	0.131655
97	C	0.94592	0.467002	0.006836
98	N	0.971746	0.458	0.306713
99	C	0.024724	0.482623	0.303002
100	C	0.055927	0.521332	0.001281
101	N	0.029917	0.529969	0.034735
102	C	0.976864	0.504804	0.039756
103	H	0.040907	0.474175	0.276364
104	C	0.95784	0.516892	0.078839
105	O	0.985788	0.565879	0.096038
106	N	0.917386	0.48055	0.103433
107	H	0.899707	0.443478	0.095836
108	H	0.908261	0.490451	0.131568
109	C	0.360041	0.721414	0.332625
110	N	0.386996	0.694977	0.332641
111	C	0.362736	0.64166	0.332633
112	N	0.309345	0.614705	0.33265
113	C	0.280288	0.638967	0.332635
114	N	0.306722	0.692355	0.332643
115	C	0.392073	0.615113	0.332789
116	C	0.44556	0.641055	0.319907
117	C	0.474453	0.614721	0.319816
118	C	0.451261	0.561674	0.333429
119	C	0.398048	0.535917	0.346947
120	C	0.36884	0.561902	0.346079
121	C	0.386588	0.777299	0.332774
122	C	0.439794	0.807281	0.346069
123	C	0.465768	0.862475	0.346957
124	C	0.440012	0.889924	0.333418
125	C	0.386969	0.860064	0.319792
126	C	0.360643	0.804839	0.319885
127	C	0.224404	0.609629	0.332797
128	C	0.194425	0.632854	0.346096
129	C	0.139229	0.60365	0.346953
130	C	0.111775	0.550438	0.333429
131	C	0.141632	0.527248	0.319813
132	C	0.196858	0.556135	0.319926
133	H	0.504219	0.882489	0.3569
134	H	0.460133	0.789253	0.356156
135	H	0.366387	0.878186	0.310722
136	H	0.322229	0.784982	0.309884
137	H	0.212456	0.671238	0.356136
138	H	0.119217	0.622093	0.356884
139	H	0.216713	0.537581	0.309916
140	H	0.123503	0.488539	0.310758
141	H	0.330466	0.541562	0.356149
142	H	0.379605	0.497463	0.356887
143	H	0.513158	0.635296	0.310744
144	H	0.464122	0.67947	0.30991
145	C	0.639561	0.279829	0.331064
146	N	0.615131	0.308731	0.331175
147	C	0.641632	0.362129	0.331075
148	N	0.694962	0.386559	0.331186
149	C	0.721857	0.360057	0.331082
150	N	0.692958	0.306726	0.331179
151	C	0.614728	0.391217	0.332202
152	C	0.559614	0.365803	0.338352
153	C	0.533232	0.39455	0.340822
154	C	0.561009	0.449889	0.337357
155	C	0.615732	0.475399	0.329853
156	C	0.642132	0.446623	0.327736
157	C	0.610457	0.223838	0.332196
158	C	0.555048	0.195854	0.327763
159	C	0.526253	0.14068	0.329912
160	C	0.551751	0.11145	0.337377
161	C	0.607092	0.138992	0.340815
162	C	0.635856	0.19412	0.338329
163	C	0.77785	0.386956	0.332212
164	C	0.805845	0.359547	0.327751
165	C	0.861025	0.385941	0.329885
166	C	0.89024	0.440667	0.337371
167	C	0.862682	0.468447	0.340845
168	C	0.807555	0.442069	0.338369
169	H	0.486222	0.122066	0.327073
170	H	0.534745	0.215319	0.322963
171	H	0.627085	0.119105	0.345044
172	H	0.67579	0.212258	0.341593
173	H	0.78639	0.31978	0.322933
174	H	0.879646	0.364537	0.327019
175	H	0.789405	0.463853	0.341646
176	H	0.882557	0.508326	0.345074
177	H	0.681901	0.466935	0.322924
178	H	0.637138	0.515431	0.327007
179	H	0.493353	0.374545	0.345061
180	H	0.537834	0.325873	0.341636
181	C	0.53466	0.479223	0.340141
182	N	0.543686	0.514069	0.640028
183	C	0.519071	0.542434	0.636326
184	C	0.480358	0.534923	0.334607
185	N	0.471725	0.500278	0.368062
186	C	0.496881	0.47238	0.373075
187	H	0.527526	0.567072	0.609694
188	C	0.4848	0.441276	0.412161
189	O	0.435816	0.420241	0.429368
190	N	0.521146	0.437161	0.436751
191	H	0.558217	0.456555	0.429147
192	H	0.511246	0.418137	0.464889
193	C	0.522379	0.055773	0.340211
194	N	0.487585	0.029955	0.640065
195	C	0.459207	0.976976	0.636363
196	C	0.466736	0.94577	0.334627
197	N	0.501367	0.971779	0.368092
198	C	0.529219	0.024827	0.373139
199	H	0.434659	0.960806	0.609674
200	C	0.560408	0.043876	0.412178
201	O	0.581262	0.015812	0.429491
202	N	0.564623	0.084387	0.436761
203	H	0.545099	0.101949	0.429214
204	H	0.583449	0.093338	0.464989
205	C	0.94592	0.467002	0.340171
206	N	0.971746	0.458	0.640048
207	C	0.024724	0.482623	0.636336
208	C	0.055927	0.521332	0.334617
209	N	0.029917	0.529969	0.368069
210	C	0.976864	0.504804	0.373089
211	H	0.040907	0.474175	0.609697
212	C	0.95784	0.516892	0.412175
213	O	0.985788	0.565879	0.429371
214	N	0.917386	0.48055	0.436768
215	H	0.899707	0.443478	0.429171
216	H	0.908261	0.490451	0.464902
217	C	0.360041	0.721414	0.665959
218	N	0.386996	0.694977	0.665973
219	C	0.362736	0.64166	0.665966
220	N	0.309345	0.614705	0.665983
221	C	0.280288	0.638967	0.665969
222	N	0.306722	0.692355	0.665976
223	C	0.392073	0.615113	0.666123
224	C	0.44556	0.641055	0.653242
225	C	0.474453	0.614721	0.653149
226	C	0.451261	0.561674	0.666764
227	C	0.398048	0.535917	0.680279
228	C	0.36884	0.561902	0.679411
229	C	0.386588	0.777299	0.666106
230	C	0.439794	0.807281	0.679404
231	C	0.465768	0.862475	0.680292
232	C	0.440012	0.889924	0.66675
233	C	0.386969	0.860064	0.653125
234	C	0.360643	0.804839	0.653219
235	C	0.224404	0.609629	0.66613
236	C	0.194425	0.632854	0.679427
237	C	0.139229	0.60365	0.680289
238	C	0.111775	0.550438	0.666764
239	C	0.141632	0.527248	0.653145
240	C	0.196858	0.556135	0.653259
241	H	0.504219	0.882489	0.690232
242	H	0.460133	0.789253	0.689488
243	H	0.366387	0.878186	0.644057
244	H	0.322229	0.784982	0.643219
245	H	0.212456	0.671238	0.689468
246	H	0.119217	0.622093	0.690215
247	H	0.216713	0.537581	0.643249
248	H	0.123503	0.488539	0.644093
249	H	0.330466	0.541562	0.689484
250	H	0.379605	0.497463	0.690222
251	H	0.513158	0.635296	0.644077
252	H	0.464122	0.67947	0.643242
253	C	0.639561	0.279829	0.664397
254	N	0.615131	0.308731	0.664507
255	C	0.641632	0.362129	0.664407
256	N	0.694962	0.386559	0.664521
257	C	0.721857	0.360057	0.664417
258	N	0.692958	0.306726	0.664514
259	C	0.614728	0.391217	0.665535
260	C	0.559614	0.365803	0.671684
261	C	0.533232	0.39455	0.674157
262	C	0.561009	0.449889	0.670689
263	C	0.615732	0.475399	0.663186
264	C	0.642132	0.446623	0.661069
265	C	0.610457	0.223838	0.665529
266	C	0.555048	0.195854	0.661096
267	C	0.526253	0.14068	0.663246
268	C	0.551751	0.11145	0.670712
269	C	0.607092	0.138992	0.67415
270	C	0.635856	0.19412	0.671664
271	C	0.77785	0.386956	0.665545
272	C	0.805845	0.359547	0.661083
273	C	0.861025	0.385941	0.663219
274	C	0.89024	0.440667	0.670702
275	C	0.862682	0.468447	0.674177
276	C	0.807555	0.442069	0.6717
277	H	0.486222	0.122066	0.660409
278	H	0.534745	0.215319	0.656296
279	H	0.627085	0.119105	0.678376
280	H	0.67579	0.212258	0.674925
281	H	0.78639	0.31978	0.656266
282	H	0.879646	0.364537	0.660352
283	H	0.789405	0.463853	0.674981
284	H	0.882557	0.508326	0.678409
285	H	0.681901	0.466935	0.65626
286	H	0.637138	0.515431	0.660342
287	H	0.493353	0.374545	0.678396
288	H	0.537834	0.325873	0.674971
289	C	0.53466	0.479223	0.673476
290	N	0.543686	0.514069	0.973363
291	C	0.519071	0.542434	0.969661
292	C	0.480358	0.534923	0.667939
293	N	0.471725	0.500278	0.701394
294	C	0.496881	0.47238	0.70641
295	H	0.527526	0.567072	0.943029
296	C	0.4848	0.441276	0.745496
297	O	0.435816	0.420241	0.762703
298	N	0.521146	0.437161	0.770086
299	H	0.558217	0.456555	0.762483
300	H	0.511246	0.418137	0.798221
301	C	0.522379	0.055773	0.673546
302	N	0.487585	0.029955	0.9734
303	C	0.459207	0.976976	0.969698
304	C	0.466736	0.94577	0.667959
305	N	0.501367	0.971779	0.701424
306	C	0.529219	0.024827	0.706474
307	H	0.434659	0.960806	0.943005
308	C	0.560408	0.043876	0.745513
309	O	0.581262	0.015812	0.762826
310	N	0.564623	0.084387	0.770096
311	H	0.545099	0.101949	0.762549
312	H	0.583449	0.093338	0.798321
313	C	0.94592	0.467002	0.673503
314	N	0.971746	0.458	0.97338
315	C	0.024724	0.482623	0.969668
316	C	0.055927	0.521332	0.667949
317	N	0.029917	0.529969	0.701404
318	C	0.976864	0.504804	0.706424
319	H	0.040907	0.474175	0.943032
320	C	0.95784	0.516892	0.745506
321	O	0.985788	0.565879	0.762706
322	N	0.917386	0.48055	0.770099
323	H	0.899707	0.443478	0.762503
324	H	0.908261	0.490451	0.798234
