data_C189H126N18O9_2018-02-15_10:41:35
#******************************************
#
# CIF file created by Zeo++
# Zeo++ is an open source package to
# analyze microporous materials
#
#*******************************************

_cell_length_a		29.9218   
_cell_length_b		29.9217   
_cell_length_c		29.7866   
_cell_angle_alpha		90   
_cell_angle_beta		90   
_cell_angle_gamma		120   

_symmetry_space_group_name_H-M		'P1'
_symmetry_Int_Tables_number		1
_symmetry_cell_setting		Monoclinic

loop_
_symmetry_equiv_pos_as_xyz
'+x,+y,+z'

loop_
_atom_site_label
_atom_site_type_symbol
_atom_site_fract_x
_atom_site_fract_y
_atom_site_fract_z
1	C	0.029088	0.515433	0.297377
2	C	0.058982	0.530387	0.003462
3	N	0.033682	0.517741	0.043344
4	H	0.045749	0.523761	0.266276
5	C	0.029088	0.515433	0.63071
6	C	0.058982	0.530387	0.336796
7	N	0.033682	0.517741	0.376676
8	H	0.045749	0.523761	0.599609
9	C	0.029088	0.515433	0.964042
10	C	0.058982	0.530387	0.670127
11	N	0.033682	0.517741	0.710011
12	H	0.045749	0.523761	0.932944
13	C	0.282324	0.642057	0.003271
14	C	0.312103	0.617043	0.003224
15	C	0.366896	0.642057	0.003247
16	C	0.391913	0.696852	0.003251
17	C	0.366898	0.726633	0.003281
18	C	0.312102	0.696852	0.003314
19	C	0.395346	0.613608	0.003157
20	C	0.37023	0.558512	0.003157
21	C	0.39717	0.531105	0.003039
22	C	0.45139	0.557563	0.002791
23	C	0.477849	0.611783	0.003019
24	C	0.450442	0.638723	0.00313
25	C	0.225425	0.613608	0.003177
26	C	0.195444	0.558512	0.003183
27	C	0.141097	0.531105	0.003056
28	C	0.113337	0.557567	0.002794
29	C	0.141099	0.611787	0.003002
30	C	0.195445	0.638727	0.003116
31	C	0.395347	0.783531	0.003183
32	C	0.370231	0.813512	0.003126
33	C	0.397171	0.867859	0.003006
34	C	0.451391	0.895622	0.002791
35	C	0.47785	0.867859	0.003049
36	C	0.450443	0.813512	0.003177
37	H	0.121929	0.49158	0.003217
38	H	0.211947	0.535987	0.003395
39	H	0.12193	0.632143	0.003123
40	H	0.211948	0.677754	0.003241
41	H	0.331202	0.797007	0.003257
42	H	0.376814	0.887027	0.00313
43	H	0.472967	0.797007	0.003375
44	H	0.517374	0.887027	0.003204
45	H	0.472968	0.677754	0.003294
46	H	0.517374	0.632139	0.003153
47	H	0.376814	0.49158	0.00319
48	H	0.331202	0.535987	0.003345
49	H	0.292774	0.578386	0.003083
50	H	0.292775	0.716182	0.003331
51	H	0.43057	0.716182	0.003157
52	C	0.728419	0.365108	0.001267
53	C	0.698644	0.390125	0.000907
54	C	0.643849	0.365109	0.001028
55	C	0.618835	0.310315	0.001042
56	C	0.643851	0.280539	0.001307
57	C	0.698646	0.310314	0.001733
58	C	0.615401	0.393556	0.001596
59	C	0.640524	0.448648	0.002092
60	C	0.613602	0.476036	0.003745
61	C	0.559406	0.449551	0.005684
62	C	0.532925	0.395358	0.003686
63	C	0.560312	0.368439	0.001992
64	C	0.785313	0.39356	0.001797
65	C	0.81528	0.448648	0.002391
66	C	0.869594	0.476032	0.003919
67	C	0.897303	0.449543	0.005703
68	C	0.869596	0.395358	0.003516
69	C	0.815289	0.368445	0.00182
70	C	0.615398	0.223646	0.001831
71	C	0.640515	0.19367	0.001867
72	C	0.613601	0.139361	0.003559
73	C	0.559415	0.111653	0.005722
74	C	0.532928	0.139361	0.003893
75	C	0.560311	0.193674	0.002361
76	H	0.888742	0.515545	0.004774
77	H	0.798785	0.471177	0.002025
78	H	0.888754	0.374995	0.003977
79	H	0.798797	0.329438	0.000686
80	H	0.679524	0.210161	0.00076
81	H	0.633965	0.120205	0.004018
82	H	0.53778	0.210166	0.001911
83	H	0.493412	0.120213	0.004709
84	H	0.537783	0.329422	0.001267
85	H	0.493407	0.374993	0.004338
86	H	0.633967	0.515549	0.004479
87	H	0.679541	0.471177	0.001502
88	H	0.717972	0.428782	0.000622
89	H	0.717965	0.290994	0.002881
90	H	0.580176	0.290987	0.000988
91	C	0.532242	0.476711	0.00793
92	N	0.519585	0.489377	0.301234
93	C	0.493517	0.515445	0.297375
94	C	0.478568	0.530387	0.003462
95	N	0.491215	0.517733	0.043342
96	C	0.517309	0.491638	0.04808
97	H	0.48519	0.52378	0.266274
98	O	0.524616	0.484314	0.092484
99	C	0.550847	0.458111	0.107657
100	H	0.550705	0.458234	0.144228
101	H	0.590909	0.477966	0.096457
102	H	0.531026	0.418053	0.09644
103	C	0.532255	0.057325	0.007943
104	N	0.519594	0.032009	0.301244
105	C	0.493516	0.979873	0.297379
106	C	0.478567	0.949973	0.003462
107	N	0.49122	0.975269	0.043346
108	C	0.517315	0.027458	0.048089
109	H	0.485184	0.963213	0.266277
110	O	0.524655	0.042085	0.092495
111	C	0.550847	0.094516	0.107674
112	H	0.550762	0.094245	0.144246
113	H	0.53096	0.114706	0.096511
114	H	0.590894	0.114775	0.096426
115	C	0.951633	0.476704	0.007935
116	N	0.976949	0.489358	0.301238
117	C	0.981492	0.491646	0.048083
118	O	0.966861	0.484314	0.092488
119	C	0.914433	0.458095	0.107663
120	H	0.914698	0.458172	0.144235
121	H	0.894189	0.41805	0.096406
122	H	0.894228	0.477969	0.096506
123	C	0.282324	0.642057	0.336605
124	C	0.312103	0.617043	0.336558
125	C	0.366896	0.642057	0.336581
126	C	0.391913	0.696852	0.336585
127	C	0.366898	0.726633	0.336615
128	C	0.312102	0.696852	0.336648
129	C	0.395346	0.613608	0.336491
130	C	0.37023	0.558512	0.336491
131	C	0.39717	0.531105	0.336373
132	C	0.45139	0.557563	0.336125
133	C	0.477849	0.611783	0.336353
134	C	0.450442	0.638723	0.336464
135	C	0.225425	0.613608	0.336511
136	C	0.195444	0.558512	0.336517
137	C	0.141097	0.531105	0.33639
138	C	0.113337	0.557567	0.336128
139	C	0.141099	0.611787	0.336336
140	C	0.195445	0.638727	0.33645
141	C	0.395347	0.783531	0.336517
142	C	0.370231	0.813512	0.33646
143	C	0.397171	0.867859	0.336339
144	C	0.451391	0.895622	0.336125
145	C	0.47785	0.867859	0.336383
146	C	0.450443	0.813512	0.336511
147	H	0.121929	0.49158	0.336551
148	H	0.211947	0.535987	0.336729
149	H	0.12193	0.632143	0.336457
150	H	0.211948	0.677754	0.336574
151	H	0.331202	0.797007	0.336591
152	H	0.376814	0.887027	0.336464
153	H	0.472967	0.797007	0.336709
154	H	0.517374	0.887027	0.336538
155	H	0.472968	0.677754	0.336628
156	H	0.517374	0.632139	0.336487
157	H	0.376814	0.49158	0.336524
158	H	0.331202	0.535987	0.336679
159	H	0.292774	0.578386	0.336417
160	H	0.292775	0.716182	0.336665
161	H	0.43057	0.716182	0.336491
162	C	0.728419	0.365108	0.334602
163	C	0.698644	0.390125	0.334243
164	C	0.643849	0.365109	0.334362
165	C	0.618835	0.310315	0.334375
166	C	0.643851	0.280539	0.334641
167	C	0.698646	0.310314	0.335065
168	C	0.615401	0.393556	0.334929
169	C	0.640524	0.448648	0.335428
170	C	0.613602	0.476036	0.337078
171	C	0.559406	0.449551	0.339019
172	C	0.532925	0.395358	0.337018
173	C	0.560312	0.368439	0.335324
174	C	0.785313	0.39356	0.33513
175	C	0.81528	0.448648	0.335725
176	C	0.869594	0.476032	0.337253
177	C	0.897303	0.449543	0.339035
178	C	0.869596	0.395358	0.33685
179	C	0.815289	0.368445	0.335156
180	C	0.615398	0.223646	0.335166
181	C	0.640515	0.19367	0.335202
182	C	0.613601	0.139361	0.336893
183	C	0.559415	0.111653	0.339055
184	C	0.532928	0.139361	0.337226
185	C	0.560311	0.193674	0.335696
186	H	0.888742	0.515545	0.338105
187	H	0.798785	0.471177	0.335357
188	H	0.888754	0.374995	0.33731
189	H	0.798797	0.329438	0.33402
190	H	0.679524	0.210161	0.334092
191	H	0.633965	0.120205	0.33735
192	H	0.53778	0.210166	0.335245
193	H	0.493412	0.120213	0.338042
194	H	0.537783	0.329422	0.3346
195	H	0.493407	0.374993	0.337672
196	H	0.633967	0.515549	0.337813
197	H	0.679541	0.471177	0.334834
198	H	0.717972	0.428782	0.333955
199	H	0.717965	0.290994	0.336215
200	H	0.580176	0.290987	0.334322
201	C	0.532242	0.476711	0.341264
202	N	0.519585	0.489377	0.634568
203	C	0.493517	0.515445	0.630707
204	C	0.478568	0.530387	0.336796
205	N	0.491215	0.517733	0.376676
206	C	0.517309	0.491638	0.381413
207	H	0.48519	0.52378	0.599609
208	O	0.524616	0.484314	0.425816
209	C	0.550847	0.458111	0.440991
210	H	0.550705	0.458234	0.477561
211	H	0.590909	0.477966	0.429791
212	H	0.531026	0.418053	0.429774
213	C	0.532255	0.057325	0.341275
214	N	0.519594	0.032009	0.634578
215	C	0.493516	0.979873	0.630714
216	C	0.478567	0.949973	0.336796
217	N	0.49122	0.975269	0.37668
218	C	0.517315	0.027458	0.381424
219	H	0.485184	0.963213	0.599609
220	O	0.524655	0.042085	0.425829
221	C	0.550847	0.094516	0.441007
222	H	0.550762	0.094245	0.477578
223	H	0.53096	0.114706	0.429845
224	H	0.590894	0.114775	0.429761
225	C	0.951633	0.476704	0.341268
226	N	0.976949	0.489358	0.634571
227	C	0.981492	0.491646	0.381417
228	O	0.966861	0.484314	0.425823
229	C	0.914433	0.458095	0.440997
230	H	0.914698	0.458172	0.477567
231	H	0.894189	0.41805	0.429741
232	H	0.894228	0.477969	0.429838
233	C	0.282324	0.642057	0.669939
234	C	0.312103	0.617043	0.669892
235	C	0.366896	0.642057	0.669916
236	C	0.391913	0.696852	0.669919
237	C	0.366898	0.726633	0.669949
238	C	0.312102	0.696852	0.669983
239	C	0.395346	0.613608	0.669825
240	C	0.37023	0.558512	0.669825
241	C	0.39717	0.531105	0.669704
242	C	0.45139	0.557563	0.669459
243	C	0.477849	0.611783	0.669684
244	C	0.450442	0.638723	0.669798
245	C	0.225425	0.613608	0.669842
246	C	0.195444	0.558512	0.669849
247	C	0.141097	0.531105	0.669721
248	C	0.113337	0.557567	0.669459
249	C	0.141099	0.611787	0.669671
250	C	0.195445	0.638727	0.669785
251	C	0.395347	0.783531	0.669849
252	C	0.370231	0.813512	0.669792
253	C	0.397171	0.867859	0.669674
254	C	0.451391	0.895622	0.669459
255	C	0.47785	0.867859	0.669714
256	C	0.450443	0.813512	0.669842
257	H	0.121929	0.49158	0.669886
258	H	0.211947	0.535987	0.670064
259	H	0.12193	0.632143	0.669788
260	H	0.211948	0.677754	0.669909
261	H	0.331202	0.797007	0.669923
262	H	0.376814	0.887027	0.669795
263	H	0.472967	0.797007	0.670043
264	H	0.517374	0.887027	0.669872
265	H	0.472968	0.677754	0.66996
266	H	0.517374	0.632139	0.669822
267	H	0.376814	0.49158	0.669859
268	H	0.331202	0.535987	0.670013
269	H	0.292774	0.578386	0.669748
270	H	0.292775	0.716182	0.669996
271	H	0.43057	0.716182	0.669822
272	C	0.728419	0.365108	0.667935
273	C	0.698644	0.390125	0.667576
274	C	0.643849	0.365109	0.667697
275	C	0.618835	0.310315	0.667707
276	C	0.643851	0.280539	0.667975
277	C	0.698646	0.310314	0.668398
278	C	0.615401	0.393556	0.668261
279	C	0.640524	0.448648	0.668761
280	C	0.613602	0.476036	0.670413
281	C	0.559406	0.449551	0.67235
282	C	0.532925	0.395358	0.670352
283	C	0.560312	0.368439	0.668657
284	C	0.785313	0.39356	0.668462
285	C	0.81528	0.448648	0.669056
286	C	0.869594	0.476032	0.670584
287	C	0.897303	0.449543	0.67237
288	C	0.869596	0.395358	0.670184
289	C	0.815289	0.368445	0.668489
290	C	0.615398	0.223646	0.668499
291	C	0.640515	0.19367	0.668536
292	C	0.613601	0.139361	0.670228
293	C	0.559415	0.111653	0.672387
294	C	0.532928	0.139361	0.67056
295	C	0.560311	0.193674	0.66903
296	H	0.888742	0.515545	0.67144
297	H	0.798785	0.471177	0.668691
298	H	0.888754	0.374995	0.670644
299	H	0.798797	0.329438	0.667354
300	H	0.679524	0.210161	0.667425
301	H	0.633965	0.120205	0.670685
302	H	0.53778	0.210166	0.668576
303	H	0.493412	0.120213	0.671376
304	H	0.537783	0.329422	0.667932
305	H	0.493407	0.374993	0.671004
306	H	0.633967	0.515549	0.671145
307	H	0.679541	0.471177	0.668167
308	H	0.717972	0.428782	0.667287
309	H	0.717965	0.290994	0.66955
310	H	0.580176	0.290987	0.667656
311	C	0.532242	0.476711	0.674596
312	N	0.519585	0.489377	0.967899
313	C	0.493517	0.515445	0.964042
314	C	0.478568	0.530387	0.670127
315	N	0.491215	0.517733	0.710008
316	C	0.517309	0.491638	0.714745
317	H	0.48519	0.52378	0.93294
318	O	0.524616	0.484314	0.759151
319	C	0.550847	0.458111	0.774322
320	H	0.550705	0.458234	0.810896
321	H	0.590909	0.477966	0.763122
322	H	0.531026	0.418053	0.763106
323	C	0.532255	0.057325	0.674609
324	N	0.519594	0.032009	0.967909
325	C	0.493516	0.979873	0.964045
326	C	0.478567	0.949973	0.670127
327	N	0.49122	0.975269	0.710011
328	C	0.517315	0.027458	0.714755
329	H	0.485184	0.963213	0.932944
330	O	0.524655	0.042085	0.759161
331	C	0.550847	0.094516	0.774339
332	H	0.550762	0.094245	0.810912
333	H	0.53096	0.114706	0.763176
334	H	0.590894	0.114775	0.763092
335	C	0.951633	0.476704	0.674599
336	N	0.976949	0.489358	0.967902
337	C	0.981492	0.491646	0.714748
338	O	0.966861	0.484314	0.759154
339	C	0.914433	0.458095	0.774329
340	H	0.914698	0.458172	0.810902
341	H	0.894189	0.41805	0.763072
342	H	0.894228	0.477969	0.763173
