data_C198H126N24_2018-02-15_10:40:48
#******************************************
#
# CIF file created by Zeo++
# Zeo++ is an open source package to
# analyze microporous materials
#
#*******************************************

_cell_length_a		32.1955   
_cell_length_b		32.1954   
_cell_length_c		29.0458   
_cell_angle_alpha		90   
_cell_angle_beta		90   
_cell_angle_gamma		120   

_symmetry_space_group_name_H-M		'P1'
_symmetry_Int_Tables_number		1
_symmetry_cell_setting		Monoclinic

loop_
_symmetry_equiv_pos_as_xyz
'+x,+y,+z'

loop_
_atom_site_label
_atom_site_type_symbol
_atom_site_fract_x
_atom_site_fract_y
_atom_site_fract_z
1	N	0.358036	0.683037	0.0167
2	C	0.307101	0.657558	0.015945
3	C	0.280839	0.628558	0.053536
4	C	0.230334	0.603283	0.052991
5	C	0.20428	0.606318	0.015012
6	C	0.231161	0.635738	0.977512
7	C	0.28169	0.660847	0.977891
8	H	0.368979	0.635928	0.946627
9	H	0.298481	0.625538	0.081482
10	H	0.212761	0.581847	0.080543
11	H	0.359997	0.742222	0.082162
12	H	0.299975	0.68185	0.950338
13	H	0.214168	0.639931	0.949646
14	C	0.152768	0.580552	0.347913
15	C	0.126245	0.558366	0.307501
16	C	0.075718	0.532912	0.307616
17	C	0.050261	0.529103	0.348605
18	N	0.076933	0.551046	0.053387
19	C	0.12561	0.575732	0.054611
20	H	0.141905	0.591412	0.084984
21	H	0.143516	0.559567	0.277539
22	H	0.058036	0.517178	0.277725
23	N	0.358036	0.683037	0.350034
24	C	0.307101	0.657558	0.34928
25	C	0.280839	0.628558	0.386869
26	C	0.230334	0.603283	0.386325
27	C	0.20428	0.606318	0.348347
28	C	0.231161	0.635738	0.310846
29	C	0.28169	0.660847	0.311226
30	H	0.368979	0.635928	0.279959
31	H	0.298481	0.625538	0.414814
32	H	0.212761	0.581847	0.413878
33	H	0.359997	0.742222	0.415496
34	H	0.299975	0.68185	0.283672
35	H	0.214168	0.639931	0.282981
36	C	0.152768	0.580552	0.681246
37	C	0.126245	0.558366	0.640833
38	C	0.075718	0.532912	0.64095
39	C	0.050261	0.529103	0.681938
40	N	0.076933	0.551046	0.386721
41	C	0.12561	0.575732	0.387943
42	H	0.141905	0.591412	0.418316
43	H	0.143516	0.559567	0.61087
44	H	0.058036	0.517178	0.61106
45	N	0.358036	0.683037	0.683366
46	C	0.307101	0.657558	0.682612
47	C	0.280839	0.628558	0.720201
48	C	0.230334	0.603283	0.719657
49	C	0.20428	0.606318	0.681679
50	C	0.231161	0.635738	0.64418
51	C	0.28169	0.660847	0.644559
52	H	0.368979	0.635928	0.613291
53	H	0.298481	0.625538	0.748147
54	H	0.212761	0.581847	0.74721
55	H	0.359997	0.742222	0.748829
56	H	0.299975	0.68185	0.617006
57	H	0.214168	0.639931	0.616314
58	C	0.152768	0.580552	0.014582
59	C	0.126245	0.558366	0.974166
60	C	0.075718	0.532912	0.974283
61	C	0.050261	0.529103	0.01527
62	N	0.076933	0.551046	0.720053
63	C	0.12561	0.575732	0.721275
64	H	0.141905	0.591412	0.751652
65	H	0.143516	0.559567	0.944206
66	H	0.058036	0.517178	0.944392
67	C	0.383306	0.657419	0.016348
68	C	0.383809	0.733977	0.016722
69	C	0.385428	0.634113	0.97607
70	C	0.410564	0.608735	0.975767
71	C	0.434186	0.605579	0.015718
72	C	0.431652	0.62916	0.055981
73	C	0.406745	0.654772	0.056294
74	C	0.412542	0.759588	0.978748
75	C	0.437796	0.81009	0.978483
76	C	0.434978	0.836792	0.015979
77	C	0.405933	0.810574	0.053931
78	C	0.380846	0.76004	0.054368
79	H	0.412106	0.593223	0.945559
80	H	0.405315	0.67113	0.085964
81	H	0.447251	0.627213	0.085973
82	H	0.415278	0.74148	0.951054
83	H	0.458952	0.82718	0.950627
84	H	0.401915	0.828048	0.081481
85	C	0.459554	0.579455	0.348763
86	C	0.441812	0.535301	0.325104
87	C	0.466966	0.509933	0.325176
88	C	0.510986	0.528397	0.349128
89	N	0.526993	0.57098	0.038032
90	C	0.503683	0.596344	0.038844
91	N	0.52228	0.46187	0.328372
92	H	0.519394	0.6283	0.056048
93	H	0.409662	0.520506	0.308194
94	H	0.452693	0.478056	0.307851
95	C	0.460426	0.888298	0.348732
96	C	0.464583	0.914587	0.308186
97	C	0.489732	0.965104	0.307984
98	C	0.511605	0.990801	0.348798
99	N	0.506916	0.964354	0.053753
100	C	0.482831	0.915681	0.055289
101	H	0.482319	0.899553	0.08574
102	H	0.448471	0.897146	0.278301
103	H	0.491642	0.982599	0.277976
104	C	0.383306	0.657419	0.349683
105	C	0.383809	0.733977	0.350054
106	C	0.385428	0.634113	0.309405
107	C	0.410564	0.608735	0.3091
108	C	0.434186	0.605579	0.349053
109	C	0.431652	0.62916	0.389313
110	C	0.406745	0.654772	0.389626
111	C	0.412542	0.759588	0.312084
112	C	0.437796	0.81009	0.311816
113	C	0.434978	0.836792	0.349314
114	C	0.405933	0.810574	0.387265
115	C	0.380846	0.76004	0.387702
116	H	0.412106	0.593223	0.278893
117	H	0.405315	0.67113	0.419297
118	H	0.447251	0.627213	0.419307
119	H	0.415278	0.74148	0.284389
120	H	0.458952	0.82718	0.283961
121	H	0.401915	0.828048	0.414814
122	C	0.459554	0.579455	0.682096
123	C	0.441812	0.535301	0.658437
124	C	0.466966	0.509933	0.658509
125	C	0.510986	0.528397	0.682461
126	N	0.526993	0.57098	0.371366
127	C	0.503683	0.596344	0.372178
128	N	0.52228	0.46187	0.661704
129	H	0.519394	0.6283	0.389382
130	H	0.409662	0.520506	0.641525
131	H	0.452693	0.478056	0.641185
132	C	0.460426	0.888298	0.682065
133	C	0.464583	0.914587	0.641519
134	C	0.489732	0.965104	0.641315
135	C	0.511605	0.990801	0.68213
136	N	0.506916	0.964354	0.387086
137	C	0.482831	0.915681	0.388621
138	H	0.482319	0.899553	0.419073
139	H	0.448471	0.897146	0.611635
140	H	0.491642	0.982599	0.611308
141	C	0.383306	0.657419	0.683015
142	C	0.383809	0.733977	0.683387
143	C	0.385428	0.634113	0.642737
144	C	0.410564	0.608735	0.642434
145	C	0.434186	0.605579	0.682385
146	C	0.431652	0.62916	0.722646
147	C	0.406745	0.654772	0.722959
148	C	0.412542	0.759588	0.645416
149	C	0.437796	0.81009	0.645147
150	C	0.434978	0.836792	0.682647
151	C	0.405933	0.810574	0.720597
152	C	0.380846	0.76004	0.721034
153	H	0.412106	0.593223	0.612227
154	H	0.405315	0.67113	0.752629
155	H	0.447251	0.627213	0.75264
156	H	0.415278	0.74148	0.617722
157	H	0.458952	0.82718	0.617295
158	H	0.401915	0.828048	0.748147
159	C	0.459554	0.579455	0.015432
160	C	0.441812	0.535301	0.991769
161	C	0.466966	0.509933	0.991842
162	C	0.510986	0.528397	0.015793
163	N	0.526993	0.57098	0.704698
164	C	0.503683	0.596344	0.705511
165	N	0.52228	0.46187	0.99504
166	H	0.519394	0.6283	0.722715
167	H	0.409662	0.520506	0.974861
168	H	0.452693	0.478056	0.974517
169	C	0.460426	0.888298	0.015397
170	C	0.464583	0.914587	0.974851
171	C	0.489732	0.965104	0.974651
172	C	0.511605	0.990801	0.015463
173	N	0.506916	0.964354	0.720418
174	C	0.482831	0.915681	0.721954
175	H	0.482319	0.899553	0.752406
176	H	0.448471	0.897146	0.944967
177	H	0.491642	0.982599	0.94464
178	C	0.538288	0.504453	0.017277
179	C	0.545583	0.436499	0.327566
180	H	0.529879	0.40455	0.310351
181	C	0.537669	0.042057	0.017602
182	N	0.542354	0.068503	0.312646
183	C	0.538288	0.504453	0.350609
184	C	0.545583	0.436499	0.660898
185	H	0.529879	0.40455	0.643684
186	C	0.537669	0.042057	0.350936
187	N	0.542354	0.068503	0.64598
188	C	0.538288	0.504453	0.683941
189	C	0.545583	0.436499	0.994231
190	H	0.529879	0.40455	0.977017
191	C	0.537669	0.042057	0.684268
192	N	0.542354	0.068503	0.979313
193	N	0.691245	0.349819	0.016358
194	C	0.665973	0.375435	0.016714
195	C	0.665478	0.29888	0.016341
196	C	0.742181	0.375302	0.017117
197	C	0.768445	0.40431	0.97953
198	C	0.818948	0.429573	0.980074
199	C	0.845	0.426539	0.018054
200	C	0.818117	0.397119	0.055554
201	C	0.767589	0.372017	0.055174
202	C	0.663849	0.398736	0.056991
203	C	0.638694	0.424097	0.057305
204	C	0.615087	0.427267	0.017351
205	C	0.61762	0.403689	0.977086
206	C	0.642527	0.378078	0.976769
207	C	0.636745	0.27327	0.054314
208	C	0.611489	0.222771	0.054583
209	C	0.614303	0.196064	0.017085
210	C	0.643349	0.222283	0.979134
211	C	0.668439	0.272817	0.978693
212	H	0.637181	0.439637	0.087505
213	H	0.680307	0.396929	0.086435
214	H	0.64396	0.361723	0.947098
215	H	0.602024	0.40564	0.947091
216	H	0.750804	0.407319	0.951577
217	H	0.836524	0.45101	0.952521
218	H	0.63401	0.291381	0.082007
219	H	0.590334	0.205681	0.082438
220	H	0.647363	0.204805	0.951581
221	H	0.689283	0.290632	0.950899
222	H	0.749303	0.351005	0.082723
223	H	0.835109	0.392923	0.083418
224	C	0.582305	0.522913	0.04123
225	C	0.607459	0.497545	0.041303
226	C	0.58972	0.453395	0.01764
227	H	0.596585	0.554797	0.058546
228	H	0.639618	0.512347	0.058202
229	C	0.55954	0.067753	0.058415
230	C	0.584699	0.118271	0.058212
231	C	0.588852	0.144561	0.017669
232	C	0.566423	0.117177	0.311117
233	H	0.566972	0.133307	0.280655
234	H	0.557635	0.050257	0.088422
235	H	0.600812	0.135711	0.088095
236	C	0.99902	0.503739	0.017795
237	C	0.973564	0.499934	0.058783
238	C	0.923034	0.474487	0.058898
239	C	0.896512	0.452298	0.018486
240	C	0.923671	0.4571	0.311794
241	N	0.972348	0.481797	0.313014
242	H	0.907374	0.441445	0.281412
243	H	0.991245	0.515672	0.088674
244	H	0.905766	0.47329	0.088859
245	N	0.691245	0.349819	0.349693
246	C	0.665973	0.375435	0.350048
247	C	0.665478	0.29888	0.349672
248	C	0.742181	0.375302	0.35045
249	C	0.768445	0.40431	0.312864
250	C	0.818948	0.429573	0.313408
251	C	0.845	0.426539	0.351387
252	C	0.818117	0.397119	0.388886
253	C	0.767589	0.372017	0.388508
254	C	0.663849	0.398736	0.390325
255	C	0.638694	0.424097	0.390639
256	C	0.615087	0.427267	0.350684
257	C	0.61762	0.403689	0.310419
258	C	0.642527	0.378078	0.310104
259	C	0.636745	0.27327	0.387647
260	C	0.611489	0.222771	0.387915
261	C	0.614303	0.196064	0.350419
262	C	0.643349	0.222283	0.312467
263	C	0.668439	0.272817	0.312029
264	H	0.637181	0.439637	0.420836
265	H	0.680307	0.396929	0.419769
266	H	0.64396	0.361723	0.280433
267	H	0.602024	0.40564	0.280427
268	H	0.750804	0.407319	0.284912
269	H	0.836524	0.45101	0.285855
270	H	0.63401	0.291381	0.415341
271	H	0.590334	0.205681	0.415771
272	H	0.647363	0.204805	0.284917
273	H	0.689283	0.290632	0.284233
274	H	0.749303	0.351005	0.416057
275	H	0.835109	0.392923	0.416749
276	C	0.582305	0.522913	0.374564
277	C	0.607459	0.497545	0.374636
278	C	0.58972	0.453395	0.350974
279	H	0.596585	0.554797	0.391878
280	H	0.639618	0.512347	0.391534
281	C	0.55954	0.067753	0.391747
282	C	0.584699	0.118271	0.391544
283	C	0.588852	0.144561	0.351001
284	C	0.566423	0.117177	0.644448
285	H	0.566972	0.133307	0.61399
286	H	0.557635	0.050257	0.421755
287	H	0.600812	0.135711	0.421428
288	C	0.99902	0.503739	0.351129
289	C	0.973564	0.499934	0.392116
290	C	0.923034	0.474487	0.392229
291	C	0.896512	0.452298	0.351821
292	C	0.923671	0.4571	0.645127
293	N	0.972348	0.481797	0.646345
294	H	0.907374	0.441445	0.614744
295	H	0.991245	0.515672	0.422006
296	H	0.905766	0.47329	0.422192
297	N	0.691245	0.349819	0.683025
298	C	0.665973	0.375435	0.68338
299	C	0.665478	0.29888	0.683005
300	C	0.742181	0.375302	0.683783
301	C	0.768445	0.40431	0.646197
302	C	0.818948	0.429573	0.646741
303	C	0.845	0.426539	0.684719
304	C	0.818117	0.397119	0.722219
305	C	0.767589	0.372017	0.72184
306	C	0.663849	0.398736	0.723658
307	C	0.638694	0.424097	0.723971
308	C	0.615087	0.427267	0.684017
309	C	0.61762	0.403689	0.643753
310	C	0.642527	0.378078	0.643436
311	C	0.636745	0.27327	0.720979
312	C	0.611489	0.222771	0.721248
313	C	0.614303	0.196064	0.683752
314	C	0.643349	0.222283	0.645798
315	C	0.668439	0.272817	0.645361
316	H	0.637181	0.439637	0.754172
317	H	0.680307	0.396929	0.753101
318	H	0.64396	0.361723	0.613766
319	H	0.602024	0.40564	0.613759
320	H	0.750804	0.407319	0.618245
321	H	0.836524	0.45101	0.619188
322	H	0.63401	0.291381	0.748674
323	H	0.590334	0.205681	0.749104
324	H	0.647363	0.204805	0.618248
325	H	0.689283	0.290632	0.617567
326	H	0.749303	0.351005	0.74939
327	H	0.835109	0.392923	0.750085
328	C	0.582305	0.522913	0.707897
329	C	0.607459	0.497545	0.707969
330	C	0.58972	0.453395	0.684306
331	H	0.596585	0.554797	0.725211
332	H	0.639618	0.512347	0.724866
333	C	0.55954	0.067753	0.72508
334	C	0.584699	0.118271	0.724877
335	C	0.588852	0.144561	0.684334
336	C	0.566423	0.117177	0.977784
337	H	0.566972	0.133307	0.947322
338	H	0.557635	0.050257	0.755088
339	H	0.600812	0.135711	0.754761
340	C	0.99902	0.503739	0.684461
341	C	0.973564	0.499934	0.725448
342	C	0.923034	0.474487	0.725565
343	C	0.896512	0.452298	0.685153
344	C	0.923671	0.4571	0.978459
345	N	0.972348	0.481797	0.979678
346	H	0.907374	0.441445	0.94808
347	H	0.991245	0.515672	0.755339
348	H	0.905766	0.47329	0.755525
