data_C384H216_2018-02-15_10:36:07
#******************************************
#
# CIF file created by Zeo++
# Zeo++ is an open source package to
# analyze microporous materials
#
#*******************************************

_cell_length_a		26.0452   
_cell_length_b		29.8783   
_cell_length_c		29.7334   
_cell_angle_alpha		90.0005   
_cell_angle_beta		89.9997   
_cell_angle_gamma		90.2366   

_symmetry_space_group_name_H-M		'P1'
_symmetry_Int_Tables_number		1
_symmetry_cell_setting		Triclinic

loop_
_symmetry_equiv_pos_as_xyz
'+x,+y,+z'

loop_
_atom_site_label
_atom_site_type_symbol
_atom_site_fract_x
_atom_site_fract_y
_atom_site_fract_z
1	C	0.915547	0.046241	0.007266
2	C	0.970378	0.045431	0.010041
3	C	0.999211	0.084099	0.021039
4	C	0.136181	0.046588	0.006525
5	C	0.081362	0.045571	0.009755
6	C	0.052833	0.084165	0.020887
7	C	0.215566	0.091612	0.021058
8	H	0.230655	0.066439	0.040191
9	C	0.83706	0.090931	0.024147
10	H	0.822531	0.065575	0.04352
11	C	0.161479	0.004546	0.006083
12	C	0.998062	0.504326	0.008523
13	C	0.970092	0.463152	0.009748
14	C	0.915274	0.462128	0.006554
15	C	0.889976	0.504169	0.006112
16	C	0.998624	0.424572	0.020924
17	C	0.053398	0.504393	0.008517
18	C	0.081081	0.463289	0.01003
19	C	0.13591	0.462476	0.007249
20	C	0.161479	0.504547	0.006083
21	C	0.052248	0.424619	0.021014
22	H	0.069765	0.395795	0.031064
23	H	0.980849	0.395702	0.030861
24	H	0.070615	0.113036	0.030816
25	H	0.981694	0.11294	0.031032
26	C	0.332996	0.255097	0.004613
27	C	0.30454	0.295344	0.005445
28	C	0.388302	0.255276	0.006123
29	C	0.416	0.221468	0.029118
30	C	0.470057	0.220775	0.029294
31	C	0.498488	0.254664	0.007374
32	C	0.24356	0.132052	0.018621
33	C	0.214427	0.417808	0.024073
34	C	0.242169	0.377377	0.022643
35	H	0.277108	0.133562	0.036387
36	H	0.275113	0.376132	0.041218
37	H	0.228946	0.443145	0.043475
38	H	0.488518	0.195742	0.046261
39	H	0.397055	0.196949	0.046549
40	H	0.324547	0.324673	0.007836
41	C	0.718454	0.253618	0.004636
42	C	0.74691	0.213371	0.005478
43	C	0.663146	0.253441	0.006139
44	C	0.635439	0.287283	0.029078
45	C	0.581382	0.287983	0.029239
46	C	0.552956	0.254054	0.007378
47	C	0.807932	0.376641	0.018696
48	C	0.835883	0.417109	0.02108
49	C	0.809266	0.131331	0.022654
50	H	0.820771	0.442291	0.040183
51	H	0.774307	0.375172	0.036355
52	H	0.776364	0.132591	0.04128
53	H	0.562922	0.313034	0.046178
54	H	0.654376	0.311826	0.04648
55	H	0.726905	0.184042	0.007883
56	C	0.998061	0.004328	0.008523
57	C	0.970095	0.963154	0.009748
58	C	0.915274	0.96213	0.006554
59	C	0.889975	0.004171	0.006112
60	C	0.915546	0.54624	0.007266
61	C	0.970378	0.54543	0.010041
62	C	0.998628	0.924571	0.020924
63	C	0.999211	0.5841	0.021039
64	C	0.053398	0.004395	0.008517
65	C	0.081081	0.963291	0.01003
66	C	0.13591	0.962478	0.007249
67	C	0.136181	0.546588	0.006525
68	C	0.081362	0.54557	0.009755
69	C	0.052248	0.924618	0.021014
70	C	0.052833	0.584164	0.020887
71	H	0.069765	0.895797	0.031064
72	H	0.980849	0.895703	0.030861
73	H	0.070615	0.613035	0.030816
74	H	0.981694	0.612941	0.031032
75	C	0.332996	0.755099	0.004613
76	C	0.30454	0.795345	0.005445
77	C	0.388301	0.755276	0.006123
78	C	0.416	0.721469	0.029118
79	C	0.470057	0.720776	0.029294
80	C	0.498487	0.754663	0.007374
81	C	0.24356	0.632052	0.018621
82	C	0.215566	0.591611	0.021058
83	C	0.214427	0.917807	0.024073
84	C	0.242169	0.877379	0.022643
85	H	0.230655	0.566439	0.040191
86	H	0.277108	0.633562	0.036387
87	H	0.275113	0.876134	0.041218
88	H	0.228946	0.943146	0.043475
89	H	0.488517	0.695741	0.046261
90	H	0.397055	0.696949	0.046549
91	H	0.324547	0.824675	0.007836
92	C	0.718454	0.753619	0.004636
93	C	0.746913	0.713372	0.005478
94	C	0.663145	0.753442	0.006139
95	C	0.635442	0.787283	0.029078
96	C	0.581386	0.787982	0.029239
97	C	0.552955	0.754054	0.007378
98	C	0.807932	0.876643	0.018696
99	C	0.835883	0.917107	0.02108
100	C	0.83706	0.590932	0.024147
101	C	0.809266	0.631332	0.022654
102	H	0.820771	0.942293	0.040183
103	H	0.774306	0.87517	0.036355
104	H	0.776363	0.632591	0.04128
105	H	0.82253	0.565575	0.04352
106	H	0.562921	0.813034	0.046178
107	H	0.65438	0.811826	0.04648
108	H	0.726909	0.684043	0.007883
109	H	0.200157	0.004493	0.000137
110	C	0.165989	0.086913	0.001815
111	C	0.885875	0.086484	0.00353
112	C	0.915545	0.046241	0.3406
113	C	0.970376	0.045431	0.343374
114	C	0.999209	0.084099	0.354372
115	C	0.136181	0.046588	0.33986
116	C	0.081362	0.045571	0.343088
117	H	0.200157	0.004493	0.333469
118	C	0.052833	0.084165	0.354221
119	C	0.215565	0.091612	0.354392
120	C	0.165989	0.086913	0.335149
121	H	0.230655	0.066439	0.373526
122	C	0.885876	0.086484	0.336863
123	C	0.837062	0.090931	0.35748
124	H	0.822529	0.065575	0.376855
125	C	0.915546	0.046241	0.673932
126	C	0.970378	0.045431	0.67671
127	C	0.999211	0.084099	0.687707
128	C	0.136181	0.046588	0.673192
129	C	0.081362	0.045571	0.676424
130	H	0.200157	0.004493	0.666801
131	C	0.052833	0.084165	0.687556
132	C	0.215566	0.091612	0.687727
133	C	0.165989	0.086913	0.668483
134	H	0.230655	0.066439	0.706857
135	C	0.885874	0.086484	0.670195
136	C	0.83706	0.090931	0.690815
137	H	0.82253	0.065575	0.710187
138	C	0.161479	0.004546	0.339416
139	C	0.161479	0.004546	0.672751
140	H	0.851298	0.004243	0.000174
141	C	0.250665	0.212841	0.997658
142	C	0.304911	0.214587	0.001465
143	C	0.250391	0.296827	0.000271
144	C	0.225026	0.254776	0.995331
145	C	0.471541	0.288898	0.984888
146	C	0.417504	0.288795	0.983828
147	C	0.223744	0.170885	0.997231
148	C	0.148182	0.124583	0.977317
149	C	0.175236	0.165538	0.976194
150	C	0.223174	0.338487	0.00051
151	C	0.175428	0.343715	0.978158
152	C	0.14832	0.384444	0.978753
153	C	0.165584	0.422235	0.003503
154	H	0.114822	0.122564	0.959277
155	H	0.159843	0.19092	0.957575
156	H	0.160635	0.318417	0.958917
157	H	0.115534	0.386328	0.959926
158	H	0.399762	0.313246	0.965546
159	H	0.491086	0.313488	0.967991
160	H	0.325093	0.185468	0.998724
161	H	0.185854	0.254493	0.995411
162	C	0.800786	0.295871	0.997668
163	C	0.746542	0.294126	0.001475
164	C	0.80106	0.211886	0.000298
165	C	0.826424	0.253935	0.995351
166	C	0.579906	0.219788	0.984945
167	C	0.633943	0.219888	0.983892
168	C	0.827712	0.337821	0.997254
169	C	0.885467	0.421803	0.001852
170	C	0.903289	0.384123	0.977368
171	C	0.876226	0.343173	0.976231
172	C	0.828277	0.170224	0.000537
173	C	0.876019	0.164998	0.978175
174	C	0.903121	0.124264	0.978757
175	H	0.936644	0.386144	0.959324
176	H	0.891617	0.317795	0.957602
177	H	0.890806	0.190295	0.958931
178	H	0.935905	0.12238	0.959926
179	H	0.651684	0.195409	0.96565
180	H	0.560357	0.195167	0.968092
181	H	0.726365	0.323245	0.998721
182	H	0.865599	0.254218	0.995435
183	C	0.99806	0.504326	0.341858
184	C	0.970094	0.463152	0.343082
185	C	0.915272	0.462128	0.339887
186	C	0.889978	0.504168	0.339446
187	C	0.998626	0.424572	0.354258
188	H	0.851299	0.004241	0.333508
189	C	0.053398	0.504396	0.341851
190	C	0.081081	0.463289	0.343364
191	C	0.13591	0.462476	0.340583
192	C	0.161479	0.504547	0.339416
193	C	0.052248	0.424619	0.354349
194	H	0.069765	0.395795	0.364398
195	H	0.980847	0.395701	0.364196
196	H	0.070615	0.113035	0.364149
197	H	0.981692	0.11294	0.364368
198	C	0.250665	0.21284	0.33099
199	C	0.304911	0.214587	0.334799
200	C	0.332996	0.255097	0.337946
201	C	0.30454	0.295344	0.338777
202	C	0.250391	0.296826	0.333603
203	C	0.225026	0.254776	0.328663
204	C	0.3883	0.255276	0.339456
205	C	0.415998	0.221468	0.362451
206	C	0.470055	0.220775	0.362629
207	C	0.498486	0.254664	0.340707
208	C	0.471541	0.288898	0.31822
209	C	0.417504	0.288796	0.317162
210	C	0.223744	0.170885	0.330562
211	C	0.24356	0.132052	0.351954
212	C	0.148181	0.124583	0.310649
213	C	0.175236	0.165538	0.309526
214	C	0.223174	0.338488	0.333843
215	C	0.175428	0.343713	0.311489
216	C	0.14832	0.384445	0.312085
217	C	0.165585	0.422235	0.336836
218	C	0.214427	0.417808	0.357406
219	C	0.242169	0.377377	0.355976
220	H	0.277108	0.133562	0.369722
221	H	0.114822	0.122564	0.292611
222	H	0.159842	0.19092	0.290908
223	H	0.160635	0.318417	0.292248
224	H	0.115534	0.386329	0.293257
225	H	0.275113	0.376132	0.374551
226	H	0.228946	0.443147	0.376808
227	H	0.399763	0.313246	0.298879
228	H	0.491086	0.313488	0.301323
229	H	0.488516	0.195742	0.379596
230	H	0.397057	0.196949	0.379882
231	H	0.325093	0.185468	0.332055
232	H	0.185853	0.254493	0.328744
233	H	0.324547	0.324673	0.341168
234	C	0.800786	0.295871	0.331
235	C	0.746542	0.294126	0.334809
236	C	0.718452	0.253618	0.33797
237	C	0.746912	0.213371	0.33881
238	C	0.801061	0.211886	0.333629
239	C	0.826424	0.253935	0.328683
240	C	0.663144	0.253441	0.339473
241	C	0.635441	0.287283	0.362414
242	C	0.581384	0.287983	0.362572
243	C	0.552957	0.254055	0.340711
244	C	0.579906	0.219788	0.318276
245	C	0.633943	0.219888	0.317225
246	C	0.827712	0.337822	0.330588
247	C	0.807934	0.376644	0.352028
248	C	0.835881	0.417108	0.354412
249	C	0.885468	0.4218	0.335185
250	C	0.903289	0.384124	0.3107
251	C	0.876226	0.343171	0.309564
252	C	0.828277	0.170224	0.333869
253	C	0.876019	0.164999	0.311507
254	C	0.903121	0.124264	0.31209
255	C	0.809268	0.131331	0.355986
256	H	0.820769	0.442291	0.373516
257	H	0.774309	0.375171	0.369688
258	H	0.936644	0.386145	0.292658
259	H	0.891617	0.317795	0.290935
260	H	0.890806	0.190295	0.292264
261	H	0.935905	0.12238	0.293258
262	H	0.776362	0.132591	0.374615
263	H	0.651685	0.195409	0.298982
264	H	0.560358	0.195167	0.301425
265	H	0.56292	0.313034	0.379512
266	H	0.654378	0.311826	0.379815
267	H	0.726365	0.323245	0.332052
268	H	0.865599	0.254218	0.328766
269	H	0.726907	0.184042	0.341215
270	C	0.998061	0.504325	0.675189
271	C	0.970092	0.463151	0.676417
272	C	0.915274	0.462127	0.673222
273	C	0.889976	0.504168	0.672781
274	C	0.998628	0.424571	0.687593
275	H	0.851297	0.004243	0.666842
276	C	0.053398	0.504396	0.675186
277	C	0.081082	0.463289	0.676696
278	C	0.13591	0.462475	0.673918
279	C	0.161479	0.504546	0.672751
280	C	0.052248	0.424618	0.68768
281	H	0.069765	0.395794	0.697733
282	H	0.980849	0.395701	0.697528
283	H	0.070615	0.113036	0.697484
284	H	0.981694	0.11294	0.697699
285	C	0.250665	0.21284	0.664323
286	C	0.304911	0.214587	0.668133
287	C	0.332996	0.255096	0.671281
288	C	0.304539	0.295344	0.672112
289	C	0.250391	0.296827	0.666936
290	C	0.225026	0.254776	0.661995
291	C	0.388301	0.255276	0.672791
292	C	0.416	0.221468	0.695786
293	C	0.470057	0.220775	0.695961
294	C	0.498488	0.254664	0.674042
295	C	0.471543	0.288898	0.651553
296	C	0.417502	0.288796	0.650497
297	C	0.223744	0.170885	0.663896
298	C	0.24356	0.132052	0.685289
299	C	0.148181	0.124583	0.643982
300	C	0.175236	0.165538	0.642859
301	C	0.223174	0.338488	0.667175
302	C	0.175428	0.343712	0.644823
303	C	0.14832	0.384445	0.645418
304	C	0.165584	0.422235	0.670168
305	C	0.214427	0.417807	0.690741
306	C	0.242169	0.37738	0.689311
307	H	0.277108	0.133562	0.703054
308	H	0.114822	0.122564	0.625945
309	H	0.159842	0.19092	0.624243
310	H	0.160635	0.318417	0.625582
311	H	0.115534	0.386329	0.626591
312	H	0.275113	0.376131	0.707887
313	H	0.228946	0.443147	0.710143
314	H	0.399761	0.313246	0.632214
315	H	0.491088	0.313488	0.634656
316	H	0.488517	0.195742	0.712928
317	H	0.397055	0.196949	0.713217
318	H	0.325093	0.185468	0.665389
319	H	0.185853	0.254493	0.66208
320	H	0.324547	0.324673	0.674503
321	C	0.800784	0.295871	0.664333
322	C	0.74654	0.294126	0.668143
323	C	0.718454	0.253618	0.671305
324	C	0.74691	0.213371	0.672146
325	C	0.801059	0.211886	0.666963
326	C	0.826426	0.253935	0.662016
327	C	0.663146	0.253441	0.672805
328	C	0.635439	0.287283	0.695745
329	C	0.581382	0.287983	0.695907
330	C	0.552955	0.254055	0.674046
331	C	0.579904	0.219788	0.65161
332	C	0.633945	0.219888	0.650561
333	C	0.827714	0.337822	0.663923
334	C	0.807932	0.376643	0.685363
335	C	0.835883	0.417108	0.687748
336	C	0.885469	0.4218	0.66852
337	C	0.903287	0.384123	0.644033
338	C	0.876228	0.34317	0.642899
339	C	0.828275	0.170224	0.667202
340	C	0.876017	0.164998	0.64484
341	C	0.903119	0.124264	0.645425
342	C	0.809266	0.131331	0.689322
343	H	0.820771	0.442293	0.706851
344	H	0.774307	0.375171	0.703023
345	H	0.936642	0.386145	0.625992
346	H	0.891615	0.317795	0.62427
347	H	0.890808	0.190295	0.625599
348	H	0.935903	0.12238	0.626591
349	H	0.776363	0.132591	0.707947
350	H	0.651683	0.195409	0.632315
351	H	0.560359	0.195167	0.63476
352	H	0.562922	0.313034	0.712844
353	H	0.654376	0.311826	0.713147
354	H	0.726363	0.323245	0.665386
355	H	0.865597	0.254218	0.6621
356	H	0.726909	0.184042	0.67455
357	H	0.851299	0.504241	0.000174
358	H	0.200157	0.504492	0.000137
359	C	0.250665	0.712842	0.997658
360	C	0.304911	0.714589	0.001465
361	C	0.250391	0.796827	0.000271
362	C	0.225026	0.754776	0.995331
363	C	0.471541	0.788898	0.984888
364	C	0.417504	0.788797	0.983828
365	C	0.223744	0.670885	0.997231
366	C	0.165989	0.586914	0.001815
367	C	0.148182	0.624583	0.977317
368	C	0.175236	0.66554	0.976194
369	C	0.223174	0.838489	0.00051
370	C	0.175428	0.843714	0.978158
371	C	0.14832	0.884446	0.978753
372	C	0.165584	0.922236	0.003503
373	H	0.114822	0.622565	0.959277
374	H	0.159843	0.690919	0.957575
375	H	0.160635	0.818417	0.958917
376	H	0.115534	0.88633	0.959926
377	H	0.399762	0.813246	0.965546
378	H	0.491085	0.813487	0.967991
379	H	0.325093	0.685468	0.998724
380	H	0.185853	0.754495	0.995411
381	C	0.800786	0.795873	0.997668
382	C	0.746541	0.794126	0.001475
383	C	0.80106	0.711888	0.000298
384	C	0.826427	0.753936	0.995351
385	C	0.579905	0.71979	0.984945
386	C	0.633943	0.719887	0.983892
387	C	0.827711	0.837823	0.997254
388	C	0.885467	0.921801	0.001852
389	C	0.903288	0.884125	0.977368
390	C	0.876226	0.843172	0.976231
391	C	0.828277	0.670226	0.000537
392	C	0.876019	0.664997	0.978175
393	C	0.903121	0.624265	0.978757
394	C	0.885875	0.586485	0.00353
395	H	0.936644	0.886146	0.959324
396	H	0.891617	0.817795	0.957602
397	H	0.890806	0.690297	0.958931
398	H	0.935905	0.622381	0.959926
399	H	0.651684	0.695411	0.96565
400	H	0.560357	0.695167	0.968092
401	H	0.726365	0.823244	0.998721
402	H	0.865599	0.754217	0.995435
403	C	0.998063	0.004328	0.341858
404	C	0.970093	0.963154	0.343082
405	C	0.915276	0.962129	0.339887
406	C	0.889977	0.00417	0.339446
407	C	0.915548	0.546243	0.3406
408	C	0.970376	0.545433	0.343374
409	C	0.998626	0.92457	0.354258
410	C	0.999209	0.5841	0.354372
411	H	0.851299	0.504242	0.333508
412	C	0.053398	0.004395	0.341851
413	C	0.081081	0.963291	0.343364
414	C	0.13591	0.962478	0.340583
415	C	0.136181	0.546587	0.33986
416	C	0.081362	0.54557	0.343088
417	C	0.052248	0.92462	0.354349
418	H	0.200157	0.504493	0.333469
419	C	0.052833	0.584164	0.354221
420	H	0.069765	0.895797	0.364398
421	H	0.980847	0.895703	0.364196
422	H	0.070615	0.613038	0.364149
423	H	0.981692	0.612941	0.364368
424	C	0.250665	0.71284	0.33099
425	C	0.304911	0.714587	0.334799
426	C	0.332996	0.755098	0.337946
427	C	0.30454	0.795345	0.338777
428	C	0.250391	0.796828	0.333603
429	C	0.225026	0.754777	0.328663
430	C	0.388299	0.755276	0.339456
431	C	0.415998	0.721468	0.362451
432	C	0.470055	0.720776	0.362629
433	C	0.498485	0.754663	0.340707
434	C	0.471541	0.788899	0.31822
435	C	0.417504	0.788795	0.317162
436	C	0.223744	0.670886	0.330562
437	C	0.24356	0.632052	0.351954
438	C	0.215565	0.591614	0.354392
439	C	0.165989	0.586915	0.335149
440	C	0.148181	0.624584	0.310649
441	C	0.175236	0.665537	0.309526
442	C	0.223174	0.83849	0.333843
443	C	0.175428	0.843715	0.311489
444	C	0.14832	0.884447	0.312085
445	C	0.165585	0.922234	0.336836
446	C	0.214427	0.917806	0.357406
447	C	0.242169	0.877379	0.355976
448	H	0.230655	0.566438	0.373526
449	H	0.277108	0.633561	0.369722
450	H	0.114822	0.622566	0.292611
451	H	0.159842	0.69092	0.290908
452	H	0.160635	0.818418	0.292248
453	H	0.115534	0.886328	0.293257
454	H	0.275113	0.876134	0.374551
455	H	0.228946	0.943146	0.376808
456	H	0.399762	0.813247	0.298879
457	H	0.491085	0.813488	0.301323
458	H	0.488515	0.695744	0.379596
459	H	0.397057	0.696949	0.379882
460	H	0.325093	0.685468	0.332055
461	H	0.185853	0.754492	0.328744
462	H	0.324547	0.824674	0.341168
463	C	0.800786	0.79587	0.331
464	C	0.746541	0.794127	0.334809
465	C	0.718452	0.753619	0.33797
466	C	0.746911	0.713372	0.33881
467	C	0.80106	0.711886	0.333629
468	C	0.826423	0.753937	0.328683
469	C	0.663143	0.753441	0.339473
470	C	0.63544	0.787282	0.362414
471	C	0.581384	0.787985	0.362572
472	C	0.552957	0.754054	0.340711
473	C	0.579905	0.719788	0.318276
474	C	0.633943	0.719888	0.317225
475	C	0.827711	0.837824	0.330588
476	C	0.807934	0.876642	0.352028
477	C	0.835881	0.91711	0.354412
478	C	0.885467	0.921802	0.335185
479	C	0.903288	0.884126	0.3107
480	C	0.876226	0.843172	0.309564
481	C	0.828277	0.670223	0.333869
482	C	0.876019	0.664998	0.311507
483	C	0.903121	0.624263	0.31209
484	C	0.885875	0.586483	0.336863
485	C	0.837062	0.590931	0.35748
486	C	0.809267	0.631332	0.355986
487	H	0.820769	0.942292	0.373516
488	H	0.774308	0.87517	0.369688
489	H	0.936644	0.886147	0.292658
490	H	0.891617	0.817796	0.290935
491	H	0.890806	0.690294	0.292264
492	H	0.935905	0.622382	0.293258
493	H	0.776361	0.632591	0.374615
494	H	0.822528	0.565575	0.376855
495	H	0.651684	0.695409	0.298982
496	H	0.560357	0.695168	0.301425
497	H	0.562919	0.813034	0.379512
498	H	0.654378	0.811826	0.379815
499	H	0.726365	0.823245	0.332052
500	H	0.865599	0.754218	0.328766
501	H	0.726907	0.684043	0.341215
502	C	0.998061	0.004327	0.675189
503	C	0.970095	0.963153	0.676417
504	C	0.915274	0.962129	0.673222
505	C	0.889975	0.00417	0.672781
506	C	0.915546	0.546242	0.673932
507	C	0.970378	0.545432	0.67671
508	C	0.998628	0.924573	0.687593
509	C	0.999211	0.5841	0.687707
510	H	0.851297	0.504242	0.666842
511	C	0.053398	0.004394	0.675186
512	C	0.081082	0.96329	0.676696
513	C	0.13591	0.962477	0.673918
514	C	0.136181	0.546587	0.673192
515	C	0.081362	0.545573	0.676424
516	C	0.052249	0.92462	0.68768
517	H	0.200157	0.504493	0.666801
518	C	0.052833	0.584166	0.687556
519	H	0.069765	0.895796	0.697733
520	H	0.980848	0.895703	0.697528
521	H	0.070615	0.613037	0.697484
522	H	0.981694	0.61294	0.697699
523	C	0.250665	0.712843	0.664323
524	C	0.304911	0.714586	0.668133
525	C	0.332996	0.755098	0.671281
526	C	0.30454	0.795345	0.672112
527	C	0.250391	0.796827	0.666936
528	C	0.225026	0.754776	0.661995
529	C	0.388301	0.755275	0.672791
530	C	0.416	0.721468	0.695786
531	C	0.470057	0.720775	0.695961
532	C	0.498487	0.754666	0.674042
533	C	0.471543	0.788898	0.651553
534	C	0.417502	0.788794	0.650497
535	C	0.223744	0.670885	0.663896
536	C	0.24356	0.632051	0.685289
537	C	0.215566	0.591613	0.687727
538	C	0.165989	0.586914	0.668483
539	C	0.148181	0.624584	0.643982
540	C	0.175236	0.665537	0.642859
541	C	0.223174	0.83849	0.667175
542	C	0.175428	0.843714	0.644823
543	C	0.14832	0.884446	0.645418
544	C	0.165584	0.922233	0.670168
545	C	0.214426	0.917809	0.690741
546	C	0.242169	0.877378	0.689311
547	H	0.230655	0.566438	0.706857
548	H	0.277108	0.633561	0.703054
549	H	0.114822	0.622565	0.625945
550	H	0.159842	0.69092	0.624243
551	H	0.160635	0.818418	0.625582
552	H	0.115534	0.886327	0.626591
553	H	0.275113	0.876133	0.707887
554	H	0.228946	0.943145	0.710143
555	H	0.39976	0.813247	0.632214
556	H	0.491087	0.813488	0.634656
557	H	0.488517	0.695743	0.712928
558	H	0.397055	0.696948	0.713217
559	H	0.325093	0.685468	0.665389
560	H	0.185853	0.754492	0.66208
561	H	0.324547	0.824674	0.674503
562	C	0.800788	0.79587	0.664333
563	C	0.746539	0.794126	0.668143
564	C	0.718454	0.753618	0.671305
565	C	0.746913	0.713371	0.672146
566	C	0.801058	0.711885	0.666963
567	C	0.826425	0.753936	0.662016
568	C	0.663145	0.753441	0.672805
569	C	0.635442	0.787285	0.695745
570	C	0.581386	0.787985	0.695907
571	C	0.552955	0.754057	0.674046
572	C	0.579903	0.719787	0.65161
573	C	0.633945	0.719888	0.650561
574	C	0.827713	0.837824	0.663923
575	C	0.807932	0.876642	0.685363
576	C	0.835883	0.917109	0.687748
577	C	0.885469	0.921802	0.66852
578	C	0.903286	0.884125	0.644033
579	C	0.876228	0.843172	0.642899
580	C	0.828279	0.670226	0.667202
581	C	0.876017	0.664998	0.64484
582	C	0.903123	0.624266	0.645425
583	C	0.885873	0.586486	0.670195
584	C	0.83706	0.590931	0.690815
585	C	0.809269	0.631332	0.689322
586	H	0.820771	0.942292	0.706851
587	H	0.774306	0.875169	0.703023
588	H	0.936642	0.886146	0.625992
589	H	0.891615	0.817795	0.62427
590	H	0.890808	0.690294	0.625599
591	H	0.935903	0.622381	0.626591
592	H	0.776363	0.63259	0.707947
593	H	0.82253	0.565574	0.710187
594	H	0.651686	0.695408	0.632315
595	H	0.560359	0.695167	0.63476
596	H	0.562921	0.813033	0.712844
597	H	0.65438	0.811825	0.713147
598	H	0.726363	0.823245	0.665386
599	H	0.865597	0.754217	0.6621
600	H	0.726909	0.684042	0.67455
