data_C180H108N18O18_2018-02-15_10:42:34
#******************************************
#
# CIF file created by Zeo++
# Zeo++ is an open source package to
# analyze microporous materials
#
#*******************************************

_cell_length_a		29.4619   
_cell_length_b		29.4619   
_cell_length_c		29.8898   
_cell_angle_alpha		90   
_cell_angle_beta		90   
_cell_angle_gamma		120   

_symmetry_space_group_name_H-M		'P1'
_symmetry_Int_Tables_number		1
_symmetry_cell_setting		Monoclinic

loop_
_symmetry_equiv_pos_as_xyz
'+x,+y,+z'

loop_
_atom_site_label
_atom_site_type_symbol
_atom_site_fract_x
_atom_site_fract_y
_atom_site_fract_z
1	C	0.030238	0.51558	0.04336
2	C	0.030754	0.515839	0.294876
3	H	0.034952	0.517935	0.108936
4	C	0.030238	0.51558	0.376694
5	C	0.030754	0.515839	0.628208
6	H	0.034952	0.517935	0.442271
7	C	0.030238	0.51558	0.710028
8	C	0.030754	0.515839	0.961542
9	H	0.034952	0.517935	0.775602
10	H	0.05116	0.52604	0.265382
11	H	0.05116	0.52604	0.598716
12	H	0.05116	0.52604	0.932047
13	C	0.36317	0.722656	0.001666
14	N	0.388549	0.694735	0.001669
15	C	0.363172	0.641436	0.001666
16	N	0.30987	0.616055	0.001673
17	C	0.281949	0.641436	0.001666
18	N	0.30987	0.694735	0.001673
19	C	0.39117	0.613437	0.001703
20	C	0.44676	0.640159	0.00176
21	C	0.474421	0.612653	0.001904
22	C	0.447222	0.557383	0.001958
23	C	0.391954	0.530187	0.001904
24	C	0.364449	0.557846	0.001756
25	C	0.39117	0.778655	0.001703
26	C	0.44676	0.807525	0.001756
27	C	0.47442	0.862689	0.001902
28	C	0.447221	0.890759	0.001958
29	C	0.391953	0.862689	0.001903
30	C	0.364449	0.807525	0.001756
31	C	0.225951	0.613437	0.001703
32	C	0.197083	0.640159	0.00176
33	C	0.141917	0.612653	0.001903
34	C	0.113846	0.557383	0.001957
35	C	0.141918	0.530187	0.001903
36	C	0.197082	0.557846	0.001756
37	H	0.514543	0.882195	0.00205
38	H	0.468039	0.788739	0.001763
39	H	0.371336	0.882195	0.002049
40	H	0.324385	0.788739	0.001763
41	H	0.215868	0.680222	0.001763
42	H	0.122413	0.633273	0.00205
43	H	0.215868	0.536568	0.001763
44	H	0.122414	0.490065	0.00205
45	H	0.324385	0.536568	0.001763
46	H	0.371337	0.490065	0.00205
47	H	0.514544	0.633273	0.002049
48	H	0.468038	0.680222	0.001763
49	C	0.642358	0.281027	0.002019
50	N	0.616977	0.30895	0.002016
51	C	0.642354	0.362251	0.00202
52	N	0.695659	0.387629	0.002017
53	C	0.723581	0.362251	0.00202
54	N	0.695658	0.30895	0.002017
55	C	0.614358	0.39025	0.002002
56	C	0.558767	0.36353	0.001962
57	C	0.531106	0.391035	0.00184
58	C	0.558302	0.446302	0.001797
59	C	0.613573	0.473502	0.00184
60	C	0.641076	0.44584	0.001961
61	C	0.614358	0.225028	0.002001
62	C	0.558765	0.196159	0.001959
63	C	0.531104	0.140992	0.00184
64	C	0.558302	0.112921	0.0018
65	C	0.613574	0.140992	0.00184
66	C	0.641079	0.196159	0.001961
67	C	0.779578	0.39025	0.002003
68	C	0.808448	0.36353	0.001961
69	C	0.863614	0.391035	0.00184
70	C	0.891685	0.446302	0.001797
71	C	0.863614	0.473502	0.00184
72	C	0.808448	0.44584	0.001962
73	H	0.490984	0.121488	0.0017
74	H	0.537488	0.214944	0.001947
75	H	0.63419	0.121488	0.001696
76	H	0.681141	0.214944	0.001945
77	H	0.789662	0.323466	0.001948
78	H	0.883119	0.370417	0.001696
79	H	0.789663	0.467118	0.001948
80	H	0.883118	0.513624	0.001696
81	H	0.68114	0.467118	0.001947
82	H	0.63419	0.513624	0.001696
83	H	0.490983	0.370417	0.001696
84	H	0.537489	0.323466	0.001946
85	C	0.516755	0.487851	0.042215
86	C	0.489027	0.51558	0.043361
87	C	0.474982	0.529627	0.002508
88	C	0.48877	0.515839	0.294877
89	C	0.516497	0.48811	0.293731
90	C	0.530543	0.474063	0.334586
91	H	0.478566	0.52604	0.265383
92	O	0.475076	0.529529	0.082672
93	H	0.526959	0.477649	0.071709
94	O	0.530446	0.474161	0.25442
95	H	0.48667	0.517935	0.108937
96	H	0.518853	0.485754	0.228154
97	C	0.516754	0.029825	0.042216
98	C	0.489026	0.974369	0.043362
99	C	0.474982	0.946279	0.002508
100	C	0.48877	0.973856	0.294877
101	C	0.5165	0.02931	0.293732
102	C	0.530546	0.057402	0.334586
103	H	0.478566	0.953448	0.265383
104	O	0.475075	0.946468	0.082672
105	H	0.526957	0.050232	0.07171
106	O	0.530446	0.057209	0.254421
107	H	0.48667	0.969654	0.108938
108	H	0.518856	0.034023	0.228155
109	C	0.97478	0.487851	0.042215
110	C	0.058329	0.529627	0.002507
111	C	0.975297	0.48811	0.29373
112	C	0.947205	0.474063	0.334582
113	O	0.058139	0.529533	0.082671
114	H	0.954375	0.477649	0.071708
115	O	0.9474	0.474161	0.254419
116	H	0.970586	0.485754	0.228153
117	C	0.36317	0.722656	0.335001
118	N	0.388549	0.694735	0.335004
119	C	0.363172	0.641436	0.335001
120	N	0.30987	0.616055	0.335004
121	C	0.281949	0.641436	0.335001
122	N	0.30987	0.694735	0.335004
123	C	0.39117	0.613437	0.335037
124	C	0.44676	0.640159	0.335091
125	C	0.474421	0.612653	0.335238
126	C	0.447222	0.557383	0.335292
127	C	0.391954	0.530187	0.335238
128	C	0.364449	0.557846	0.335091
129	C	0.39117	0.778655	0.335037
130	C	0.44676	0.807525	0.335091
131	C	0.47442	0.862689	0.335235
132	C	0.447221	0.890759	0.335292
133	C	0.391953	0.862689	0.335238
134	C	0.364449	0.807525	0.335091
135	C	0.225951	0.613437	0.335037
136	C	0.197083	0.640159	0.335091
137	C	0.141917	0.612653	0.335235
138	C	0.113846	0.557383	0.335292
139	C	0.141918	0.530187	0.335235
140	C	0.197082	0.557846	0.335091
141	H	0.514543	0.882195	0.335382
142	H	0.468039	0.788739	0.335098
143	H	0.371336	0.882195	0.335382
144	H	0.324385	0.788739	0.335094
145	H	0.215868	0.680222	0.335098
146	H	0.122413	0.633273	0.335382
147	H	0.215868	0.536568	0.335098
148	H	0.122414	0.490065	0.335385
149	H	0.324385	0.536568	0.335098
150	H	0.371337	0.490065	0.335382
151	H	0.514544	0.633273	0.335382
152	H	0.468038	0.680222	0.335094
153	C	0.642358	0.281027	0.335352
154	N	0.616977	0.30895	0.335349
155	C	0.642354	0.362251	0.335352
156	N	0.695659	0.387629	0.335352
157	C	0.723581	0.362251	0.335355
158	N	0.695658	0.30895	0.335352
159	C	0.614358	0.39025	0.335335
160	C	0.558767	0.36353	0.335295
161	C	0.531106	0.391035	0.335171
162	C	0.558302	0.446302	0.335131
163	C	0.613573	0.473502	0.335175
164	C	0.641076	0.44584	0.335295
165	C	0.614358	0.225028	0.335335
166	C	0.558765	0.196159	0.335292
167	C	0.531104	0.140992	0.335171
168	C	0.558302	0.112921	0.335131
169	C	0.613574	0.140992	0.335171
170	C	0.641079	0.196159	0.335295
171	C	0.779578	0.39025	0.335335
172	C	0.808448	0.36353	0.335295
173	C	0.863614	0.391035	0.335171
174	C	0.891685	0.446302	0.335131
175	C	0.863614	0.473502	0.335175
176	C	0.808448	0.44584	0.335295
177	H	0.490984	0.121488	0.335031
178	H	0.537488	0.214944	0.335278
179	H	0.63419	0.121488	0.335031
180	H	0.681141	0.214944	0.335278
181	H	0.789662	0.323466	0.335282
182	H	0.883119	0.370417	0.335031
183	H	0.789663	0.467118	0.335282
184	H	0.883118	0.513624	0.335031
185	H	0.68114	0.467118	0.335282
186	H	0.63419	0.513624	0.335031
187	H	0.490983	0.370417	0.335031
188	H	0.537489	0.323466	0.335278
189	C	0.516755	0.487851	0.37555
190	C	0.489027	0.51558	0.376694
191	C	0.474982	0.529627	0.33584
192	C	0.48877	0.515839	0.628211
193	C	0.516497	0.48811	0.627063
194	C	0.530543	0.474063	0.667917
195	H	0.478566	0.52604	0.598716
196	O	0.475076	0.529529	0.416005
197	H	0.526959	0.477649	0.405041
198	O	0.530446	0.474161	0.587752
199	H	0.48667	0.517935	0.442271
200	H	0.518853	0.485754	0.561489
201	C	0.516754	0.029825	0.37555
202	C	0.489026	0.974369	0.376694
203	C	0.474982	0.946279	0.33584
204	C	0.48877	0.973856	0.628211
205	C	0.5165	0.02931	0.627067
206	C	0.530546	0.057402	0.667917
207	H	0.478566	0.953448	0.598716
208	O	0.475075	0.946468	0.416005
209	H	0.526957	0.050232	0.405045
210	O	0.530446	0.057209	0.587756
211	H	0.48667	0.969654	0.442271
212	H	0.518856	0.034023	0.561489
213	C	0.97478	0.487851	0.37555
214	C	0.058329	0.529627	0.33584
215	C	0.975297	0.48811	0.627063
216	C	0.947205	0.474063	0.667917
217	O	0.058139	0.529533	0.416005
218	H	0.954375	0.477649	0.405041
219	O	0.9474	0.474161	0.587752
220	H	0.970586	0.485754	0.561486
221	C	0.36317	0.722656	0.668335
222	N	0.388549	0.694735	0.668338
223	C	0.363172	0.641436	0.668335
224	N	0.30987	0.616055	0.668338
225	C	0.281949	0.641436	0.668335
226	N	0.30987	0.694735	0.668338
227	C	0.39117	0.613437	0.668368
228	C	0.44676	0.640159	0.668425
229	C	0.474421	0.612653	0.668569
230	C	0.447222	0.557383	0.668626
231	C	0.391954	0.530187	0.668569
232	C	0.364449	0.557846	0.668425
233	C	0.39117	0.778655	0.668368
234	C	0.44676	0.807525	0.668422
235	C	0.47442	0.862689	0.668569
236	C	0.447221	0.890759	0.668623
237	C	0.391953	0.862689	0.668569
238	C	0.364449	0.807525	0.668425
239	C	0.225951	0.613437	0.668372
240	C	0.197083	0.640159	0.668425
241	C	0.141917	0.612653	0.668569
242	C	0.113846	0.557383	0.668623
243	C	0.141918	0.530187	0.668569
244	C	0.197082	0.557846	0.668425
245	H	0.514543	0.882195	0.668716
246	H	0.468039	0.788739	0.668429
247	H	0.371336	0.882195	0.668716
248	H	0.324385	0.788739	0.668429
249	H	0.215868	0.680222	0.668429
250	H	0.122413	0.633273	0.668716
251	H	0.215868	0.536568	0.668432
252	H	0.122414	0.490065	0.668716
253	H	0.324385	0.536568	0.668429
254	H	0.371337	0.490065	0.668716
255	H	0.514544	0.633273	0.668716
256	H	0.468038	0.680222	0.668429
257	C	0.642358	0.281027	0.668686
258	N	0.616977	0.30895	0.668683
259	C	0.642354	0.362251	0.668686
260	N	0.695659	0.387629	0.668683
261	C	0.723581	0.362251	0.668686
262	N	0.695658	0.30895	0.668683
263	C	0.614358	0.39025	0.66867
264	C	0.558767	0.36353	0.668629
265	C	0.531106	0.391035	0.668506
266	C	0.558302	0.446302	0.668462
267	C	0.613573	0.473502	0.668506
268	C	0.641076	0.44584	0.668629
269	C	0.614358	0.225028	0.66867
270	C	0.558765	0.196159	0.668626
271	C	0.531104	0.140992	0.668506
272	C	0.558302	0.112921	0.668465
273	C	0.613574	0.140992	0.668506
274	C	0.641079	0.196159	0.668626
275	C	0.779578	0.39025	0.66867
276	C	0.808448	0.36353	0.668629
277	C	0.863614	0.391035	0.668506
278	C	0.891685	0.446302	0.668462
279	C	0.863614	0.473502	0.668509
280	C	0.808448	0.44584	0.668629
281	H	0.490984	0.121488	0.668365
282	H	0.537488	0.214944	0.668613
283	H	0.63419	0.121488	0.668365
284	H	0.681141	0.214944	0.668613
285	H	0.789662	0.323466	0.668616
286	H	0.883119	0.370417	0.668365
287	H	0.789663	0.467118	0.668613
288	H	0.883118	0.513624	0.668365
289	H	0.68114	0.467118	0.668613
290	H	0.63419	0.513624	0.668365
291	H	0.490983	0.370417	0.668365
292	H	0.537489	0.323466	0.668613
293	C	0.516755	0.487851	0.708881
294	C	0.489027	0.51558	0.710028
295	C	0.474982	0.529627	0.669175
296	C	0.48877	0.515839	0.961542
297	C	0.516497	0.48811	0.960398
298	C	0.530543	0.474063	0.001251
299	H	0.478566	0.52604	0.93205
300	O	0.475076	0.529529	0.749339
301	H	0.526959	0.477649	0.738376
302	O	0.530446	0.474161	0.921087
303	H	0.48667	0.517935	0.775606
304	H	0.518853	0.485754	0.89482
305	C	0.516754	0.029825	0.708884
306	C	0.489026	0.974369	0.710028
307	C	0.474982	0.946279	0.669175
308	C	0.48877	0.973856	0.961545
309	C	0.5165	0.02931	0.960398
310	C	0.530546	0.057402	0.001251
311	H	0.478566	0.953448	0.93205
312	O	0.475075	0.946468	0.749339
313	H	0.526957	0.050232	0.738376
314	O	0.530446	0.057209	0.921087
315	H	0.48667	0.969654	0.775606
316	H	0.518856	0.034023	0.89482
317	C	0.97478	0.487851	0.708881
318	C	0.058329	0.529627	0.669175
319	C	0.975297	0.48811	0.960398
320	C	0.947205	0.474063	0.001251
321	O	0.058139	0.529533	0.749336
322	H	0.954375	0.477649	0.738376
323	O	0.9474	0.474161	0.921087
324	H	0.970586	0.485754	0.89482
