data_C180H99N27O18_2018-02-15_10:41:35
#******************************************
#
# CIF file created by Zeo++
# Zeo++ is an open source package to
# analyze microporous materials
#
#*******************************************

_cell_length_a		29.7786   
_cell_length_b		29.7786   
_cell_length_c		29.6424   
_cell_angle_alpha		90   
_cell_angle_beta		90   
_cell_angle_gamma		120   

_symmetry_space_group_name_H-M		'P1'
_symmetry_Int_Tables_number		1
_symmetry_cell_setting		Monoclinic

loop_
_symmetry_equiv_pos_as_xyz
'+x,+y,+z'

loop_
_atom_site_label
_atom_site_type_symbol
_atom_site_fract_x
_atom_site_fract_y
_atom_site_fract_z
1	C	0.032932	0.504916	0.300954
2	C	0.064155	0.531338	0.005249
3	N	0.038222	0.529395	0.043649
4	H	0.048615	0.504885	0.270356
5	C	0.032932	0.504916	0.634287
6	C	0.064155	0.531338	0.338582
7	N	0.038222	0.529395	0.376983
8	H	0.048615	0.504885	0.603689
9	C	0.032932	0.504916	0.96762
10	C	0.064155	0.531338	0.671915
11	N	0.038222	0.529395	0.710316
12	H	0.048615	0.504885	0.937022
13	C	0.148792	0.545266	0.976233
14	C	0.119674	0.559125	0.005016
15	C	0.147769	0.601689	0.034476
16	H	0.130614	0.514164	0.95505
17	H	0.128702	0.61345	0.055876
18	C	0.148792	0.545266	0.309567
19	C	0.119674	0.559125	0.33835
20	C	0.147769	0.601689	0.367811
21	H	0.130614	0.514164	0.288382
22	H	0.128702	0.61345	0.389209
23	C	0.148792	0.545266	0.6429
24	C	0.119674	0.559125	0.671683
25	C	0.147769	0.601689	0.701144
26	H	0.130614	0.514164	0.621714
27	H	0.128702	0.61345	0.722542
28	C	0.286942	0.644273	0.00591
29	C	0.315916	0.618378	0.005947
30	C	0.370818	0.645677	0.005937
31	C	0.396717	0.700545	0.00592
32	C	0.369416	0.728146	0.005889
33	C	0.314546	0.699176	0.005879
34	C	0.399275	0.618561	0.005778
35	C	0.385562	0.575857	0.034777
36	C	0.413491	0.549186	0.034599
37	C	0.455946	0.563549	0.005033
38	C	0.469713	0.606432	0.976158
39	C	0.442111	0.633451	0.976631
40	C	0.231362	0.615815	0.005744
41	C	0.203413	0.572871	0.976705
42	C	0.202366	0.629624	0.034643
43	C	0.39654	0.78372	0.005714
44	C	0.38168	0.811666	0.97654
45	C	0.408689	0.866286	0.976081
46	C	0.451548	0.895403	0.004979
47	C	0.465883	0.867306	0.034568
48	C	0.43923	0.812709	0.034726
49	H	0.222653	0.561742	0.954892
50	H	0.22081	0.659815	0.056767
51	H	0.351372	0.792421	0.954666
52	H	0.395862	0.884468	0.954797
53	H	0.450863	0.794259	0.056953
54	H	0.496621	0.886368	0.056059
55	H	0.453163	0.663747	0.95475
56	H	0.500725	0.619266	0.954882
57	H	0.401803	0.518433	0.056073
58	H	0.355447	0.564189	0.056972
59	H	0.29656	0.578668	0.00592
60	H	0.294203	0.718541	0.005798
61	H	0.436426	0.720895	0.005869
62	C	0.731356	0.367609	0.004493
63	C	0.702379	0.393554	0.004409
64	C	0.647448	0.366745	0.004476
65	C	0.621498	0.311825	0.004425
66	C	0.648309	0.283703	0.004503
67	C	0.703231	0.312677	0.004459
68	C	0.619182	0.394322	0.005458
69	C	0.636102	0.440935	0.980929
70	C	0.608872	0.468307	0.982602
71	C	0.56333	0.450396	0.008865
72	C	0.545575	0.403078	0.032336
73	C	0.573133	0.376068	0.031114
74	C	0.787202	0.395873	0.005485
75	C	0.815003	0.441986	0.031061
76	C	0.869573	0.469536	0.032294
77	C	0.899134	0.45173	0.008893
78	C	0.871499	0.406126	0.98271
79	C	0.8169	0.378898	0.98103
80	C	0.620729	0.227864	0.005498
81	C	0.638967	0.200067	0.03117
82	C	0.611954	0.145496	0.03239
83	C	0.564645	0.115938	0.008905
84	C	0.546764	0.14357	0.982612
85	C	0.574131	0.198171	0.980949
86	H	0.887372	0.503508	0.049942
87	H	0.795776	0.455918	0.049756
88	H	0.89094	0.391794	0.964779
89	H	0.799054	0.346652	0.961045
90	H	0.672073	0.219298	0.049935
91	H	0.628052	0.127696	0.050145
92	H	0.55979	0.216019	0.960893
93	H	0.513039	0.124129	0.964621
94	H	0.559247	0.342951	0.049863
95	H	0.511662	0.386964	0.050071
96	H	0.623164	0.502042	0.964628
97	H	0.668308	0.455298	0.960893
98	H	0.721879	0.433199	0.004594
99	H	0.723371	0.293169	0.004685
100	H	0.581851	0.29168	0.004628
101	C	0.535972	0.478563	0.009925
102	N	0.5343	0.502791	0.304821
103	C	0.509955	0.530826	0.300895
104	C	0.483714	0.535797	0.005249
105	N	0.485805	0.511946	0.043684
106	C	0.51037	0.483938	0.048219
107	H	0.509942	0.546503	0.27029
108	N	0.511479	0.463522	0.09085
109	O	0.466132	0.43299	0.104222
110	O	0.533131	0.49925	0.11939
111	C	0.536492	0.060411	0.009937
112	N	0.512304	0.034529	0.304816
113	C	0.484284	0.982149	0.300869
114	C	0.479284	0.950919	0.005215
115	N	0.5031	0.976848	0.04367
116	C	0.531101	0.02942	0.048225
117	H	0.468636	0.966472	0.270253
118	N	0.551457	0.050924	0.090875
119	O	0.581979	0.036114	0.104279
120	O	0.515691	0.036821	0.11938
121	C	0.954662	0.479095	0.009943
122	N	0.980552	0.480618	0.304878
123	C	0.985651	0.504846	0.048192
124	N	0.964149	0.503892	0.090798
125	O	0.978963	0.549283	0.104033
126	O	0.978244	0.482348	0.119432
127	C	0.286942	0.644273	0.33924
128	C	0.315916	0.618378	0.339281
129	C	0.370818	0.645677	0.339271
130	C	0.396717	0.700545	0.339254
131	C	0.369416	0.728146	0.33922
132	C	0.314546	0.699176	0.339213
133	C	0.399275	0.618561	0.339109
134	C	0.385562	0.575857	0.368111
135	C	0.413491	0.549186	0.367932
136	C	0.455946	0.563549	0.338366
137	C	0.469713	0.606432	0.309493
138	C	0.442111	0.633451	0.309965
139	C	0.231362	0.615815	0.339075
140	C	0.203413	0.572871	0.310039
141	C	0.202366	0.629624	0.367976
142	C	0.39654	0.78372	0.339045
143	C	0.38168	0.811666	0.309873
144	C	0.408689	0.866286	0.309412
145	C	0.451548	0.895403	0.338312
146	C	0.465883	0.867306	0.367902
147	C	0.43923	0.812709	0.36806
148	H	0.222653	0.561742	0.288224
149	H	0.22081	0.659815	0.3901
150	H	0.351372	0.792421	0.287998
151	H	0.395862	0.884468	0.288131
152	H	0.450863	0.794259	0.390285
153	H	0.496621	0.886368	0.389391
154	H	0.453163	0.663747	0.288081
155	H	0.500725	0.619266	0.288213
156	H	0.401803	0.518433	0.389408
157	H	0.355447	0.564189	0.390306
158	H	0.29656	0.578668	0.339254
159	H	0.294203	0.718541	0.339132
160	H	0.436426	0.720895	0.339203
161	C	0.731356	0.367609	0.337827
162	C	0.702379	0.393554	0.337742
163	C	0.647448	0.366745	0.33781
164	C	0.621498	0.311825	0.337759
165	C	0.648309	0.283703	0.337837
166	C	0.703231	0.312677	0.33779
167	C	0.619182	0.394322	0.338791
168	C	0.636102	0.440935	0.31426
169	C	0.608872	0.468307	0.315936
170	C	0.56333	0.450396	0.342199
171	C	0.545575	0.403078	0.365669
172	C	0.573133	0.376068	0.364447
173	C	0.787202	0.395873	0.338818
174	C	0.815003	0.441986	0.364393
175	C	0.869573	0.469536	0.365628
176	C	0.899134	0.45173	0.342226
177	C	0.871499	0.406126	0.316041
178	C	0.8169	0.378898	0.314362
179	C	0.620729	0.227864	0.338832
180	C	0.638967	0.200067	0.364505
181	C	0.611954	0.145496	0.365722
182	C	0.564645	0.115938	0.342239
183	C	0.546764	0.14357	0.315943
184	C	0.574131	0.198171	0.31428
185	H	0.887372	0.503508	0.383275
186	H	0.795776	0.455918	0.383089
187	H	0.89094	0.391794	0.298113
188	H	0.799054	0.346652	0.294376
189	H	0.672073	0.219298	0.383268
190	H	0.628052	0.127696	0.383477
191	H	0.55979	0.216019	0.294226
192	H	0.513039	0.124129	0.297952
193	H	0.559247	0.342951	0.383197
194	H	0.511662	0.386964	0.383403
195	H	0.623164	0.502042	0.29796
196	H	0.668308	0.455298	0.294227
197	H	0.721879	0.433199	0.337928
198	H	0.723371	0.293169	0.338019
199	H	0.581851	0.29168	0.337958
200	C	0.535972	0.478563	0.343258
201	N	0.5343	0.502791	0.638153
202	C	0.509955	0.530826	0.63423
203	C	0.483714	0.535797	0.338579
204	N	0.485805	0.511946	0.377017
205	C	0.51037	0.483938	0.381555
206	H	0.509942	0.546503	0.603625
207	N	0.511479	0.463522	0.424183
208	O	0.466132	0.43299	0.437555
209	O	0.533131	0.49925	0.452723
210	C	0.536492	0.060411	0.343272
211	N	0.512304	0.034529	0.63815
212	C	0.484284	0.982149	0.634203
213	C	0.479284	0.950919	0.338549
214	N	0.5031	0.976848	0.377004
215	C	0.531101	0.02942	0.381558
216	H	0.468636	0.966472	0.603588
217	N	0.551457	0.050924	0.42421
218	O	0.581979	0.036114	0.437613
219	O	0.515691	0.036821	0.452713
220	C	0.954662	0.479095	0.343275
221	N	0.980552	0.480618	0.63821
222	C	0.985651	0.504846	0.381524
223	N	0.964149	0.503892	0.424132
224	O	0.978963	0.549283	0.437366
225	O	0.978244	0.482348	0.452767
226	C	0.286942	0.644273	0.672577
227	C	0.315916	0.618378	0.672614
228	C	0.370818	0.645677	0.672604
229	C	0.396717	0.700545	0.672587
230	C	0.369416	0.728146	0.672553
231	C	0.314546	0.699176	0.672546
232	C	0.399275	0.618561	0.672445
233	C	0.385562	0.575857	0.701444
234	C	0.413491	0.549186	0.701265
235	C	0.455946	0.563549	0.6717
236	C	0.469713	0.606432	0.642825
237	C	0.442111	0.633451	0.643298
238	C	0.231362	0.615815	0.672408
239	C	0.203413	0.572871	0.643372
240	C	0.202366	0.629624	0.701309
241	C	0.39654	0.78372	0.672378
242	C	0.38168	0.811666	0.643207
243	C	0.408689	0.866286	0.642744
244	C	0.451548	0.895403	0.671646
245	C	0.465883	0.867306	0.701235
246	C	0.43923	0.812709	0.701393
247	H	0.222653	0.561742	0.621559
248	H	0.22081	0.659815	0.723436
249	H	0.351372	0.792421	0.621333
250	H	0.395862	0.884468	0.621464
251	H	0.450863	0.794259	0.723622
252	H	0.496621	0.886368	0.722728
253	H	0.453163	0.663747	0.621413
254	H	0.500725	0.619266	0.621545
255	H	0.401803	0.518433	0.722741
256	H	0.355447	0.564189	0.723639
257	H	0.29656	0.578668	0.672587
258	H	0.294203	0.718541	0.672465
259	H	0.436426	0.720895	0.672536
260	C	0.731356	0.367609	0.67116
261	C	0.702379	0.393554	0.671075
262	C	0.647448	0.366745	0.671143
263	C	0.621498	0.311825	0.671092
264	C	0.648309	0.283703	0.67117
265	C	0.703231	0.312677	0.671126
266	C	0.619182	0.394322	0.672125
267	C	0.636102	0.440935	0.647592
268	C	0.608872	0.468307	0.649269
269	C	0.56333	0.450396	0.675532
270	C	0.545575	0.403078	0.699002
271	C	0.573133	0.376068	0.69778
272	C	0.787202	0.395873	0.672152
273	C	0.815003	0.441986	0.697726
274	C	0.869573	0.469536	0.698961
275	C	0.899134	0.45173	0.675559
276	C	0.871499	0.406126	0.649373
277	C	0.8169	0.378898	0.647697
278	C	0.620729	0.227864	0.672165
279	C	0.638967	0.200067	0.697838
280	C	0.611954	0.145496	0.699056
281	C	0.564645	0.115938	0.675572
282	C	0.546764	0.14357	0.649276
283	C	0.574131	0.198171	0.647612
284	H	0.887372	0.503508	0.716608
285	H	0.795776	0.455918	0.716423
286	H	0.89094	0.391794	0.631446
287	H	0.799054	0.346652	0.627709
288	H	0.672073	0.219298	0.716601
289	H	0.628052	0.127696	0.716811
290	H	0.55979	0.216019	0.62756
291	H	0.513039	0.124129	0.631284
292	H	0.559247	0.342951	0.716531
293	H	0.511662	0.386964	0.71674
294	H	0.623164	0.502042	0.631295
295	H	0.668308	0.455298	0.62756
296	H	0.721879	0.433199	0.671261
297	H	0.723371	0.293169	0.671352
298	H	0.581851	0.29168	0.671291
299	C	0.535972	0.478563	0.676591
300	N	0.5343	0.502791	0.971489
301	C	0.509955	0.530826	0.967563
302	C	0.483714	0.535797	0.671915
303	N	0.485805	0.511946	0.71035
304	C	0.51037	0.483938	0.714888
305	H	0.509942	0.546503	0.936958
306	N	0.511479	0.463522	0.757516
307	O	0.466132	0.43299	0.770888
308	O	0.533131	0.49925	0.786056
309	C	0.536492	0.060411	0.676605
310	N	0.512304	0.034529	0.971483
311	C	0.484284	0.982149	0.967536
312	C	0.479284	0.950919	0.671882
313	N	0.5031	0.976848	0.710337
314	C	0.531101	0.02942	0.714891
315	H	0.468636	0.966472	0.936921
316	N	0.551457	0.050924	0.757543
317	O	0.581979	0.036114	0.770946
318	O	0.515691	0.036821	0.786046
319	C	0.954662	0.479095	0.676611
320	N	0.980552	0.480618	0.971543
321	C	0.985651	0.504846	0.714857
322	N	0.964149	0.503892	0.757465
323	O	0.978963	0.549283	0.7707
324	O	0.978244	0.482348	0.7861
