data_C198H108N18O36_2018-02-15_10:41:36
#******************************************
#
# CIF file created by Zeo++
# Zeo++ is an open source package to
# analyze microporous materials
#
#*******************************************

_cell_length_a		29.8788   
_cell_length_b		29.8787   
_cell_length_c		29.6008   
_cell_angle_alpha		90   
_cell_angle_beta		90   
_cell_angle_gamma		120   

_symmetry_space_group_name_H-M		'P1'
_symmetry_Int_Tables_number		1
_symmetry_cell_setting		Monoclinic

loop_
_symmetry_equiv_pos_as_xyz
'+x,+y,+z'

loop_
_atom_site_label
_atom_site_type_symbol
_atom_site_fract_x
_atom_site_fract_y
_atom_site_fract_z
1	C	0.06608	0.534702	0.341345
2	C	0.037472	0.521566	0.300717
3	H	0.056616	0.53098	0.270459
4	C	0.037934	0.519487	0.048883
5	H	0.057415	0.529376	0.078972
6	C	0.06608	0.534702	0.674677
7	C	0.037472	0.521566	0.63405
8	H	0.056616	0.53098	0.603794
9	C	0.037934	0.519487	0.382216
10	H	0.057415	0.529376	0.412306
11	C	0.06608	0.534702	0.008011
12	C	0.037472	0.521566	0.967385
13	H	0.056616	0.53098	0.937126
14	C	0.037934	0.519487	0.715551
15	H	0.057415	0.529376	0.745638
16	C	0.150103	0.547957	0.036386
17	C	0.121487	0.562426	0.007763
18	C	0.149681	0.605335	0.978858
19	H	0.131508	0.516808	0.057455
20	H	0.130786	0.617721	0.957983
21	C	0.150103	0.547957	0.369719
22	C	0.121487	0.562426	0.341095
23	C	0.149681	0.605335	0.312189
24	H	0.131508	0.516808	0.39079
25	H	0.130786	0.617721	0.291315
26	C	0.150103	0.547957	0.703055
27	C	0.121487	0.562426	0.674431
28	C	0.149681	0.605335	0.645523
29	H	0.131508	0.516808	0.724122
30	H	0.130786	0.617721	0.624648
31	C	0.204534	0.575075	0.035976
32	C	0.204107	0.632639	0.978635
33	C	0.204534	0.575075	0.369311
34	C	0.204107	0.632639	0.311969
35	C	0.204534	0.575075	0.702643
36	C	0.204107	0.632639	0.645303
37	C	0.288135	0.645775	0.006875
38	C	0.316369	0.619291	0.006889
39	C	0.371087	0.645736	0.006472
40	C	0.397567	0.700451	0.006046
41	C	0.371122	0.728725	0.006036
42	C	0.316403	0.700494	0.006452
43	C	0.39878	0.618007	0.006472
44	C	0.384031	0.574863	0.03509
45	C	0.411313	0.547714	0.03517
46	C	0.454365	0.562341	0.006465
47	C	0.469024	0.605405	0.97776
48	C	0.441919	0.632732	0.977858
49	C	0.23272	0.618054	0.007137
50	C	0.398883	0.78414	0.005766
51	C	0.384322	0.812788	0.034246
52	C	0.41166	0.867214	0.034014
53	C	0.454582	0.895371	0.005117
54	C	0.469038	0.866723	0.976517
55	C	0.441881	0.812294	0.976936
56	H	0.223453	0.56347	0.057634
57	H	0.222684	0.662988	0.956761
58	H	0.353952	0.794234	0.056106
59	H	0.399278	0.886131	0.054863
60	H	0.453471	0.793349	0.955291
61	H	0.500191	0.885296	0.95545
62	H	0.453657	0.663208	0.956129
63	H	0.500274	0.617911	0.956828
64	H	0.398788	0.516461	0.056101
65	H	0.353545	0.563134	0.056808
66	H	0.296572	0.579744	0.005654
67	H	0.296636	0.720289	0.006442
68	H	0.437114	0.720227	0.007286
69	C	0.732242	0.367881	0.008772
70	C	0.703546	0.393933	0.009921
71	C	0.648946	0.367867	0.006401
72	C	0.622922	0.31327	0.002877
73	C	0.649017	0.284614	0.004019
74	C	0.703737	0.31316	0.006394
75	C	0.621066	0.395707	0.006408
76	C	0.641394	0.444749	0.985405
77	C	0.61444	0.472222	0.985804
78	C	0.565341	0.451357	0.006428
79	C	0.544512	0.402257	0.02704
80	C	0.572019	0.375331	0.027414
81	C	0.788022	0.395996	0.009486
82	C	0.816708	0.444467	0.987486
83	C	0.871135	0.471944	0.987621
84	C	0.8995	0.45155	0.008778
85	C	0.871294	0.402995	0.03033
86	C	0.816866	0.376192	0.031119
87	C	0.620944	0.228836	0.00332
88	C	0.640779	0.200014	0.981692
89	C	0.614007	0.145588	0.982483
90	C	0.565462	0.117355	0.004046
91	C	0.54504	0.145699	0.025201
92	C	0.572484	0.200124	0.025332
93	H	0.889956	0.507124	0.971888
94	H	0.798269	0.460254	0.970284
95	H	0.890246	0.386594	0.045742
96	H	0.798586	0.341969	0.048294
97	H	0.674987	0.218315	0.964497
98	H	0.630424	0.126653	0.967068
99	H	0.556669	0.218543	0.042526
100	H	0.509862	0.126857	0.040937
101	H	0.555798	0.340648	0.043914
102	H	0.50893	0.385572	0.042069
103	H	0.631094	0.507808	0.970784
104	H	0.676084	0.461007	0.968912
105	H	0.722984	0.433089	0.014553
106	H	0.723475	0.293449	0.006394
107	H	0.583767	0.293805	0.998253
108	C	0.482058	0.534617	0.339788
109	C	0.497637	0.521817	0.29904
110	C	0.524952	0.494386	0.298388
111	C	0.537612	0.479051	0.339771
112	C	0.52228	0.491696	0.047829
113	H	0.488038	0.531529	0.268864
114	C	0.494851	0.519015	0.047195
115	H	0.48515	0.528611	0.077376
116	N	0.538508	0.481076	0.256612
117	N	0.535591	0.478124	0.089596
118	O	0.567922	0.520553	0.233853
119	O	0.564233	0.517272	0.112989
120	O	0.499347	0.452432	0.233231
121	O	0.496114	0.448698	0.11235
122	C	0.482338	0.950779	0.338187
123	C	0.497553	0.978909	0.297306
124	C	0.524784	0.033651	0.296419
125	C	0.537836	0.06191	0.337681
126	C	0.522918	0.034148	0.045873
127	H	0.48765	0.959416	0.267222
128	C	0.495502	0.979396	0.045473
129	H	0.486065	0.960259	0.075734
130	N	0.537835	0.060235	0.254506
131	N	0.536593	0.061204	0.08756
132	O	0.498419	0.049531	0.231437
133	O	0.565468	0.050818	0.110742
134	O	0.567074	0.050121	0.231534
135	O	0.497317	0.051195	0.110611
136	C	0.982723	0.494142	0.300302
137	C	0.954948	0.479209	0.341822
138	C	0.983193	0.492256	0.049756
139	N	0.955677	0.480473	0.25861
140	N	0.956594	0.479202	0.091662
141	O	0.966077	0.451612	0.235423
142	O	0.967289	0.518617	0.11473
143	O	0.965687	0.519757	0.235569
144	O	0.966701	0.449962	0.114641
145	C	0.288135	0.645775	0.340207
146	C	0.316369	0.619291	0.340224
147	C	0.371087	0.645736	0.339805
148	C	0.397567	0.700451	0.339379
149	C	0.371122	0.728725	0.339369
150	C	0.316403	0.700494	0.339784
151	C	0.39878	0.618007	0.339805
152	C	0.384031	0.574863	0.368422
153	C	0.411313	0.547714	0.368503
154	C	0.454365	0.562341	0.339798
155	C	0.469024	0.605405	0.311094
156	C	0.441919	0.632732	0.31119
157	C	0.23272	0.618054	0.34047
158	C	0.398883	0.78414	0.339099
159	C	0.384322	0.812788	0.367581
160	C	0.41166	0.867214	0.367348
161	C	0.454582	0.895371	0.33845
162	C	0.469038	0.866723	0.309851
163	C	0.441881	0.812294	0.31027
164	H	0.223453	0.56347	0.390969
165	H	0.222684	0.662988	0.290093
166	H	0.353952	0.794234	0.389438
167	H	0.399278	0.886131	0.388195
168	H	0.453471	0.793349	0.288625
169	H	0.500191	0.885296	0.288784
170	H	0.453657	0.663208	0.289462
171	H	0.500274	0.617911	0.290161
172	H	0.398788	0.516461	0.389435
173	H	0.353545	0.563134	0.390141
174	H	0.296572	0.579744	0.338987
175	H	0.296636	0.720289	0.339774
176	H	0.437114	0.720227	0.340619
177	C	0.732242	0.367881	0.342105
178	C	0.703546	0.393933	0.343254
179	C	0.648946	0.367867	0.339734
180	C	0.622922	0.31327	0.336211
181	C	0.649017	0.284614	0.337353
182	C	0.703737	0.31316	0.339727
183	C	0.621066	0.395707	0.339741
184	C	0.641394	0.444749	0.318738
185	C	0.61444	0.472222	0.319137
186	C	0.565341	0.451357	0.339761
187	C	0.544512	0.402257	0.360375
188	C	0.572019	0.375331	0.360747
189	C	0.788022	0.395996	0.342822
190	C	0.816708	0.444467	0.32082
191	C	0.871135	0.471944	0.320954
192	C	0.8995	0.45155	0.342112
193	C	0.871294	0.402995	0.363662
194	C	0.816866	0.376192	0.364453
195	C	0.620944	0.228836	0.336654
196	C	0.640779	0.200014	0.315024
197	C	0.614007	0.145588	0.315816
198	C	0.565462	0.117355	0.337379
199	C	0.54504	0.145699	0.358534
200	C	0.572484	0.200124	0.358666
201	H	0.889956	0.507124	0.305222
202	H	0.798269	0.460254	0.303616
203	H	0.890246	0.386594	0.379074
204	H	0.798586	0.341969	0.381628
205	H	0.674987	0.218315	0.29783
206	H	0.630424	0.126653	0.3004
207	H	0.556669	0.218543	0.375861
208	H	0.509862	0.126857	0.37427
209	H	0.555798	0.340648	0.377246
210	H	0.50893	0.385572	0.375402
211	H	0.631094	0.507808	0.304118
212	H	0.676084	0.461007	0.302245
213	H	0.722984	0.433089	0.347886
214	H	0.723475	0.293449	0.339727
215	H	0.583767	0.293805	0.331584
216	C	0.482058	0.534617	0.673123
217	C	0.497637	0.521817	0.632374
218	C	0.524952	0.494386	0.631722
219	C	0.537612	0.479051	0.673103
220	C	0.52228	0.491696	0.381162
221	H	0.488038	0.531529	0.602199
222	C	0.494851	0.519015	0.38053
223	H	0.48515	0.528611	0.410708
224	N	0.538508	0.481076	0.589946
225	N	0.535591	0.478124	0.422931
226	O	0.567922	0.520553	0.567187
227	O	0.564233	0.517272	0.446322
228	O	0.499347	0.452432	0.566565
229	O	0.496114	0.448698	0.445684
230	C	0.482338	0.950779	0.671518
231	C	0.497553	0.978909	0.630641
232	C	0.524784	0.033651	0.629753
233	C	0.537836	0.06191	0.671015
234	C	0.522918	0.034148	0.379206
235	H	0.48765	0.959416	0.600554
236	C	0.495502	0.979396	0.378807
237	H	0.486065	0.960259	0.409066
238	N	0.537835	0.060235	0.587838
239	N	0.536593	0.061204	0.420894
240	O	0.498419	0.049531	0.564771
241	O	0.565468	0.050818	0.444075
242	O	0.567074	0.050121	0.564866
243	O	0.497317	0.051195	0.443944
244	C	0.982723	0.494142	0.633634
245	C	0.954948	0.479209	0.675154
246	C	0.983193	0.492256	0.383091
247	N	0.955677	0.480473	0.591943
248	N	0.956594	0.479202	0.424995
249	O	0.966077	0.451612	0.568754
250	O	0.967289	0.518617	0.448062
251	O	0.965687	0.519757	0.568903
252	O	0.966701	0.449962	0.447974
253	C	0.288135	0.645775	0.673542
254	C	0.316369	0.619291	0.673556
255	C	0.371087	0.645736	0.673137
256	C	0.397567	0.700451	0.672711
257	C	0.371122	0.728725	0.672704
258	C	0.316403	0.700494	0.673116
259	C	0.39878	0.618007	0.67314
260	C	0.384031	0.574863	0.701757
261	C	0.411313	0.547714	0.701839
262	C	0.454365	0.562341	0.67313
263	C	0.469024	0.605405	0.644428
264	C	0.441919	0.632732	0.644523
265	C	0.23272	0.618054	0.673802
266	C	0.398883	0.78414	0.672431
267	C	0.384322	0.812788	0.700913
268	C	0.41166	0.867214	0.70068
269	C	0.454582	0.895371	0.671782
270	C	0.469038	0.866723	0.643185
271	C	0.441881	0.812294	0.643604
272	H	0.223453	0.56347	0.724301
273	H	0.222684	0.662988	0.623429
274	H	0.353952	0.794234	0.722774
275	H	0.399278	0.886131	0.721531
276	H	0.453471	0.793349	0.621959
277	H	0.500191	0.885296	0.622118
278	H	0.453657	0.663208	0.622793
279	H	0.500274	0.617911	0.623496
280	H	0.398788	0.516461	0.722767
281	H	0.353545	0.563134	0.723476
282	H	0.296572	0.579744	0.672319
283	H	0.296636	0.720289	0.67311
284	H	0.437114	0.720227	0.673954
285	C	0.732242	0.367881	0.675437
286	C	0.703546	0.393933	0.676589
287	C	0.648946	0.367867	0.673069
288	C	0.622922	0.31327	0.669546
289	C	0.649017	0.284614	0.670687
290	C	0.703737	0.31316	0.673062
291	C	0.621066	0.395707	0.673076
292	C	0.641394	0.444749	0.652073
293	C	0.61444	0.472222	0.652472
294	C	0.565341	0.451357	0.673093
295	C	0.544512	0.402257	0.693707
296	C	0.572019	0.375331	0.694082
297	C	0.788022	0.395996	0.676153
298	C	0.816708	0.444467	0.654154
299	C	0.871135	0.471944	0.654289
300	C	0.8995	0.45155	0.675444
301	C	0.871294	0.402995	0.696997
302	C	0.816866	0.376192	0.697788
303	C	0.620944	0.228836	0.669988
304	C	0.640779	0.200014	0.648357
305	C	0.614007	0.145588	0.649151
306	C	0.565462	0.117355	0.670711
307	C	0.54504	0.145699	0.691869
308	C	0.572484	0.200124	0.692001
309	H	0.889956	0.507124	0.638557
310	H	0.798269	0.460254	0.636948
311	H	0.890246	0.386594	0.712409
312	H	0.798586	0.341969	0.714963
313	H	0.674987	0.218315	0.631165
314	H	0.630424	0.126653	0.633736
315	H	0.556669	0.218543	0.709193
316	H	0.509862	0.126857	0.707605
317	H	0.555798	0.340648	0.710582
318	H	0.50893	0.385572	0.708737
319	H	0.631094	0.507808	0.637452
320	H	0.676084	0.461007	0.63558
321	H	0.722984	0.433089	0.681221
322	H	0.723475	0.293449	0.673059
323	H	0.583767	0.293805	0.664917
324	C	0.482058	0.534617	0.006455
325	C	0.497637	0.521817	0.965706
326	C	0.524952	0.494386	0.965054
327	C	0.537612	0.479051	0.006438
328	C	0.52228	0.491696	0.714497
329	H	0.488038	0.531529	0.935531
330	C	0.494851	0.519015	0.713862
331	H	0.48515	0.528611	0.744043
332	N	0.538508	0.481076	0.923278
333	N	0.535591	0.478124	0.756263
334	O	0.567922	0.520553	0.900519
335	O	0.564233	0.517272	0.779657
336	O	0.499347	0.452432	0.899897
337	O	0.496114	0.448698	0.779015
338	C	0.482338	0.950779	0.004854
339	C	0.497553	0.978909	0.963973
340	C	0.524784	0.033651	0.963088
341	C	0.537836	0.06191	0.00435
342	C	0.522918	0.034148	0.712541
343	H	0.48765	0.959416	0.93389
344	C	0.495502	0.979396	0.712139
345	H	0.486065	0.960259	0.742402
346	N	0.537835	0.060235	0.921174
347	N	0.536593	0.061204	0.754226
348	O	0.498419	0.049531	0.898103
349	O	0.565468	0.050818	0.777407
350	O	0.567074	0.050121	0.898201
351	O	0.497317	0.051195	0.777279
352	C	0.982723	0.494142	0.96697
353	C	0.954948	0.479209	0.008487
354	C	0.983193	0.492256	0.716423
355	N	0.955677	0.480473	0.925278
356	N	0.956594	0.479202	0.75833
357	O	0.966077	0.451612	0.90209
358	O	0.967289	0.518617	0.781397
359	O	0.965687	0.519757	0.902235
360	O	0.966701	0.449962	0.781309
