data_C180H108N18_2018-02-15_10:42:34
#******************************************
#
# CIF file created by Zeo++
# Zeo++ is an open source package to
# analyze microporous materials
#
#*******************************************

_cell_length_a		29.4519   
_cell_length_b		29.4518   
_cell_length_c		29.9184   
_cell_angle_alpha		90   
_cell_angle_beta		90   
_cell_angle_gamma		120   

_symmetry_space_group_name_H-M		'P1'
_symmetry_Int_Tables_number		1
_symmetry_cell_setting		Monoclinic

loop_
_symmetry_equiv_pos_as_xyz
'+x,+y,+z'

loop_
_atom_site_label
_atom_site_type_symbol
_atom_site_fract_x
_atom_site_fract_y
_atom_site_fract_z
1	C	0.029652	0.515168	0.042317
2	C	0.029631	0.515156	0.294223
3	C	0.029652	0.515168	0.375651
4	C	0.029631	0.515156	0.627556
5	C	0.029652	0.515168	0.708985
6	C	0.029631	0.515156	0.96089
7	C	0.362453	0.722182	0.001326
8	N	0.387853	0.694267	0.001329
9	C	0.362452	0.640954	0.001326
10	N	0.309138	0.615552	0.001329
11	C	0.281226	0.640954	0.001326
12	N	0.309138	0.694267	0.001329
13	C	0.390454	0.612953	0.001373
14	C	0.446063	0.639688	0.001411
15	C	0.473733	0.612173	0.001503
16	C	0.446519	0.556888	0.001565
17	C	0.391231	0.529671	0.001503
18	C	0.363718	0.557343	0.001411
19	C	0.390454	0.778184	0.001373
20	C	0.446062	0.807056	0.001411
21	C	0.473734	0.862243	0.001503
22	C	0.446519	0.890315	0.001565
23	C	0.391232	0.862243	0.001503
24	C	0.363718	0.807056	0.001411
25	C	0.225222	0.612953	0.001373
26	C	0.196349	0.639688	0.001411
27	C	0.141164	0.612173	0.001503
28	C	0.113093	0.556888	0.001565
29	C	0.141164	0.529671	0.001503
30	C	0.196348	0.557343	0.001411
31	H	0.513871	0.881748	0.001522
32	H	0.467347	0.788264	0.001378
33	H	0.3706	0.881748	0.001522
34	H	0.323641	0.788264	0.001378
35	H	0.215141	0.679765	0.001378
36	H	0.121659	0.632807	0.001522
37	H	0.21514	0.536057	0.001378
38	H	0.121658	0.489535	0.001522
39	H	0.323641	0.536057	0.001378
40	H	0.370601	0.489535	0.001522
41	H	0.513872	0.632807	0.001522
42	H	0.467348	0.679765	0.001378
43	C	0.641632	0.280545	0.001323
44	N	0.616232	0.308458	0.001326
45	C	0.641633	0.361772	0.001323
46	N	0.694946	0.387173	0.001329
47	C	0.72286	0.361772	0.001323
48	N	0.694947	0.308458	0.001329
49	C	0.613633	0.389773	0.001381
50	C	0.558023	0.363037	0.001426
51	C	0.530352	0.39055	0.00153
52	C	0.557567	0.445836	0.001599
53	C	0.612854	0.473053	0.00153
54	C	0.640367	0.445381	0.001426
55	C	0.61363	0.224542	0.001381
56	C	0.558022	0.195669	0.001426
57	C	0.530352	0.140485	0.00153
58	C	0.557566	0.112413	0.0016
59	C	0.612856	0.140485	0.00153
60	C	0.640366	0.195669	0.001426
61	C	0.778862	0.389773	0.001381
62	C	0.807736	0.363038	0.001426
63	C	0.862919	0.39055	0.00153
64	C	0.890989	0.445836	0.001599
65	C	0.86292	0.473053	0.00153
66	C	0.807735	0.445381	0.001426
67	H	0.490217	0.120978	0.001548
68	H	0.536737	0.214461	0.001386
69	H	0.633484	0.120978	0.001549
70	H	0.680446	0.214461	0.001386
71	H	0.788943	0.32296	0.001386
72	H	0.882425	0.369919	0.001548
73	H	0.788943	0.466666	0.001387
74	H	0.882426	0.513192	0.001548
75	H	0.680444	0.466666	0.001386
76	H	0.633488	0.513192	0.001548
77	H	0.490215	0.369919	0.001548
78	H	0.536739	0.32296	0.001386
79	C	0.515837	0.487567	0.042327
80	C	0.48824	0.515168	0.042317
81	C	0.474228	0.529181	0.001597
82	C	0.48825	0.515156	0.294223
83	C	0.515846	0.487559	0.294233
84	C	0.52986	0.473547	0.001616
85	H	0.478489	0.524919	0.264326
86	H	0.478469	0.524938	0.072205
87	H	0.525602	0.477805	0.072221
88	H	0.525614	0.477789	0.264343
89	C	0.51584	0.028953	0.042327
90	C	0.488238	0.973754	0.042317
91	C	0.474226	0.945729	0.001597
92	C	0.48825	0.973777	0.294223
93	C	0.515848	0.02897	0.294233
94	C	0.529861	0.056996	0.001616
95	H	0.478488	0.954252	0.264326
96	H	0.478468	0.954213	0.072205
97	H	0.525604	0.048481	0.072221
98	H	0.525613	0.048507	0.264343
99	C	0.974452	0.487567	0.042327
100	C	0.057677	0.529181	0.001597
101	C	0.974434	0.487559	0.294233
102	C	0.946408	0.473547	0.001616
103	H	0.049154	0.524919	0.264326
104	H	0.049194	0.524938	0.072205
105	H	0.954923	0.477805	0.072221
106	H	0.954895	0.477789	0.264342
107	C	0.362453	0.722182	0.33466
108	N	0.387853	0.694267	0.334663
109	C	0.362452	0.640954	0.33466
110	N	0.309138	0.615552	0.334663
111	C	0.281226	0.640954	0.334657
112	N	0.309138	0.694267	0.334663
113	C	0.390454	0.612953	0.334707
114	C	0.446063	0.639688	0.334744
115	C	0.473733	0.612173	0.334837
116	C	0.446519	0.556888	0.334897
117	C	0.391231	0.529671	0.334837
118	C	0.363718	0.557343	0.334744
119	C	0.390454	0.778184	0.334707
120	C	0.446062	0.807056	0.334744
121	C	0.473734	0.862243	0.334837
122	C	0.446519	0.890315	0.334897
123	C	0.391232	0.862243	0.334837
124	C	0.363718	0.807056	0.334744
125	C	0.225222	0.612953	0.334707
126	C	0.196349	0.639688	0.334744
127	C	0.141164	0.612173	0.334837
128	C	0.113093	0.556888	0.334897
129	C	0.141164	0.529671	0.334837
130	C	0.196348	0.557343	0.334744
131	H	0.513871	0.881748	0.334857
132	H	0.467347	0.788264	0.33471
133	H	0.3706	0.881748	0.334857
134	H	0.323641	0.788264	0.33471
135	H	0.215141	0.679765	0.33471
136	H	0.121659	0.632807	0.334857
137	H	0.21514	0.536057	0.33471
138	H	0.121658	0.489535	0.334857
139	H	0.323641	0.536057	0.33471
140	H	0.370601	0.489535	0.334857
141	H	0.513872	0.632807	0.334857
142	H	0.467348	0.679765	0.33471
143	C	0.641632	0.280545	0.334657
144	N	0.616232	0.308458	0.33466
145	C	0.641633	0.361772	0.334657
146	N	0.694946	0.387173	0.33466
147	C	0.72286	0.361772	0.334657
148	N	0.694947	0.308458	0.33466
149	C	0.613633	0.389773	0.334713
150	C	0.558023	0.363037	0.33476
151	C	0.530352	0.39055	0.334864
152	C	0.557567	0.445836	0.334934
153	C	0.612854	0.473053	0.334864
154	C	0.640367	0.445381	0.33476
155	C	0.61363	0.224542	0.334713
156	C	0.558022	0.195669	0.33476
157	C	0.530352	0.140485	0.334864
158	C	0.557566	0.112413	0.334934
159	C	0.612856	0.140485	0.334864
160	C	0.640366	0.195669	0.33476
161	C	0.778862	0.389773	0.334713
162	C	0.807736	0.363038	0.33476
163	C	0.862919	0.39055	0.334864
164	C	0.890989	0.445836	0.334934
165	C	0.86292	0.473053	0.334864
166	C	0.807735	0.445381	0.33476
167	H	0.490217	0.120978	0.334881
168	H	0.536737	0.214461	0.33472
169	H	0.633484	0.120978	0.334881
170	H	0.680446	0.214461	0.33472
171	H	0.788943	0.32296	0.33472
172	H	0.882425	0.369919	0.334881
173	H	0.788943	0.466666	0.33472
174	H	0.882426	0.513192	0.334881
175	H	0.680444	0.466666	0.33472
176	H	0.633488	0.513192	0.334881
177	H	0.490215	0.369919	0.334881
178	H	0.536739	0.32296	0.33472
179	C	0.515837	0.487567	0.375661
180	C	0.48824	0.515168	0.375651
181	C	0.474228	0.529181	0.334931
182	C	0.48825	0.515156	0.627556
183	C	0.515846	0.487559	0.627566
184	C	0.52986	0.473547	0.334951
185	H	0.478489	0.524919	0.597658
186	H	0.478469	0.524938	0.405539
187	H	0.525602	0.477805	0.405556
188	H	0.525614	0.477789	0.597675
189	C	0.51584	0.028953	0.375661
190	C	0.488238	0.973754	0.375651
191	C	0.474226	0.945729	0.334931
192	C	0.48825	0.973777	0.627556
193	C	0.515848	0.02897	0.627566
194	C	0.529861	0.056996	0.334951
195	H	0.478488	0.954252	0.597658
196	H	0.478468	0.954213	0.405539
197	H	0.525604	0.048481	0.405556
198	H	0.525613	0.048507	0.597675
199	C	0.974452	0.487567	0.375661
200	C	0.057677	0.529181	0.334931
201	C	0.974434	0.487559	0.627566
202	C	0.946408	0.473547	0.334951
203	H	0.049154	0.524919	0.597662
204	H	0.049194	0.524938	0.405539
205	H	0.954923	0.477805	0.405556
206	H	0.954895	0.477789	0.597675
207	C	0.362453	0.722182	0.667993
208	N	0.387853	0.694267	0.667996
209	C	0.362452	0.640954	0.667993
210	N	0.309138	0.615552	0.667996
211	C	0.281226	0.640954	0.667993
212	N	0.309138	0.694267	0.667996
213	C	0.390454	0.612953	0.66804
214	C	0.446063	0.639688	0.66808
215	C	0.473733	0.612173	0.66817
216	C	0.446519	0.556888	0.668234
217	C	0.391231	0.529671	0.66817
218	C	0.363718	0.557343	0.66808
219	C	0.390454	0.778184	0.66804
220	C	0.446062	0.807056	0.66808
221	C	0.473734	0.862243	0.66817
222	C	0.446519	0.890315	0.668234
223	C	0.391232	0.862243	0.66817
224	C	0.363718	0.807056	0.66808
225	C	0.225222	0.612953	0.66804
226	C	0.196349	0.639688	0.66808
227	C	0.141164	0.612173	0.66817
228	C	0.113093	0.556888	0.668234
229	C	0.141164	0.529671	0.66817
230	C	0.196348	0.557343	0.66808
231	H	0.513871	0.881748	0.66819
232	H	0.467347	0.788264	0.668047
233	H	0.3706	0.881748	0.66819
234	H	0.323641	0.788264	0.668047
235	H	0.215141	0.679765	0.668047
236	H	0.121659	0.632807	0.66819
237	H	0.21514	0.536057	0.668047
238	H	0.121658	0.489535	0.66819
239	H	0.323641	0.536057	0.668047
240	H	0.370601	0.489535	0.66819
241	H	0.513872	0.632807	0.66819
242	H	0.467348	0.679765	0.668047
243	C	0.641632	0.280545	0.66799
244	N	0.616232	0.308458	0.667993
245	C	0.641633	0.361772	0.66799
246	N	0.694946	0.387173	0.667993
247	C	0.72286	0.361772	0.66799
248	N	0.694947	0.308458	0.667993
249	C	0.613633	0.389773	0.66805
250	C	0.558023	0.363037	0.668093
251	C	0.530352	0.39055	0.668197
252	C	0.557567	0.445836	0.668267
253	C	0.612854	0.473053	0.668197
254	C	0.640367	0.445381	0.668093
255	C	0.61363	0.224542	0.668047
256	C	0.558022	0.195669	0.668093
257	C	0.530352	0.140485	0.668197
258	C	0.557566	0.112413	0.668267
259	C	0.612856	0.140485	0.668197
260	C	0.640366	0.195669	0.668093
261	C	0.778862	0.389773	0.668047
262	C	0.807736	0.363038	0.668093
263	C	0.862919	0.39055	0.668197
264	C	0.890989	0.445836	0.668267
265	C	0.86292	0.473053	0.668197
266	C	0.807735	0.445381	0.668093
267	H	0.490217	0.120978	0.668217
268	H	0.536737	0.214461	0.668053
269	H	0.633484	0.120978	0.668217
270	H	0.680446	0.214461	0.668053
271	H	0.788943	0.32296	0.668053
272	H	0.882425	0.369919	0.668217
273	H	0.788943	0.466666	0.668053
274	H	0.882426	0.513192	0.668217
275	H	0.680444	0.466666	0.668053
276	H	0.633488	0.513192	0.668217
277	H	0.490215	0.369919	0.668217
278	H	0.536739	0.32296	0.668053
279	C	0.515837	0.487567	0.708995
280	C	0.48824	0.515168	0.708985
281	C	0.474228	0.529181	0.668264
282	C	0.48825	0.515156	0.96089
283	C	0.515846	0.487559	0.9609
284	C	0.52986	0.473547	0.668284
285	H	0.478489	0.524919	0.930995
286	H	0.478469	0.524938	0.738872
287	H	0.525602	0.477805	0.738889
288	H	0.525614	0.477789	0.931008
289	C	0.51584	0.028953	0.708995
290	C	0.488238	0.973754	0.708985
291	C	0.474226	0.945729	0.668264
292	C	0.48825	0.973777	0.96089
293	C	0.515848	0.02897	0.9609
294	C	0.529861	0.056996	0.668284
295	H	0.478488	0.954252	0.930995
296	H	0.478468	0.954213	0.738872
297	H	0.525604	0.048481	0.738889
298	H	0.525613	0.048507	0.931012
299	C	0.974452	0.487567	0.708995
300	C	0.057677	0.529181	0.668264
301	C	0.974434	0.487559	0.9609
302	C	0.946408	0.473547	0.668284
303	H	0.049154	0.524919	0.930995
304	H	0.049194	0.524938	0.738872
305	H	0.954923	0.477805	0.738889
306	H	0.954895	0.477789	0.931008
