data_C144H72N54O18_2018-02-15_10:32:43
#******************************************
#
# CIF file created by Zeo++
# Zeo++ is an open source package to
# analyze microporous materials
#
#*******************************************

_cell_length_a		29.2131   
_cell_length_b		29.2131   
_cell_length_c		30.2528   
_cell_angle_alpha		90   
_cell_angle_beta		90   
_cell_angle_gamma		120   

_symmetry_space_group_name_H-M		'P1'
_symmetry_Int_Tables_number		1
_symmetry_cell_setting		Monoclinic

loop_
_symmetry_equiv_pos_as_xyz
'+x,+y,+z'

loop_
_atom_site_label
_atom_site_type_symbol
_atom_site_fract_x
_atom_site_fract_y
_atom_site_fract_z
1	C	0.339456	0.715965	6.3e-05
2	C	0.286403	0.674825	0.999758
3	C	0.27356	0.621358	0.000212
4	C	0.314702	0.609444	0.999808
5	C	0.368172	0.65007	0.33345
6	C	0.380084	0.703127	0.999677
7	H	0.305515	0.570676	0.999002
8	H	0.418847	0.732708	0.998766
9	H	0.256819	0.684007	0.998919
10	C	0.35206	0.769318	0.998731
11	C	0.408924	0.637469	0.332151
12	C	0.220204	0.580609	0.999011
13	O	0.45073	0.666165	0.971845
14	O	0.323277	0.78239	0.971828
15	O	0.207031	0.53875	0.972083
16	C	0.648373	0.275711	0.990471
17	C	0.701309	0.31712	0.990858
18	C	0.713813	0.370493	0.990554
19	C	0.672402	0.382017	0.990934
20	C	0.619031	0.34115	0.323874
21	C	0.607504	0.288213	0.990858
22	H	0.681328	0.420696	0.992015
23	H	0.56882	0.25846	0.991879
24	H	0.731061	0.308188	0.991899
25	C	0.636133	0.222463	0.992203
26	C	0.578022	0.353384	0.32568
27	C	0.767058	0.411498	0.992392
28	O	0.536291	0.324097	0.019227
29	O	0.665415	0.20997	0.019046
30	O	0.779482	0.453175	0.019336
31	C	0.43455	0.572676	0.01555
32	C	0.442369	0.559759	0.305502
33	N	0.465103	0.529802	0.298861
34	C	0.481589	0.511177	0.999355
35	C	0.474988	0.522801	0.04357
36	C	0.450813	0.553209	0.051403
37	H	0.444656	0.56081	0.083238
38	C	0.504542	0.479689	0.324941
39	C	0.552106	0.418308	0.310589
40	C	0.544515	0.430605	0.020927
41	H	0.428807	0.570502	0.278571
42	N	0.512473	0.467598	0.283357
43	C	0.520576	0.461234	0.028426
44	N	0.513251	0.474444	0.069824
45	N	0.491458	0.503504	0.077022
46	H	0.558501	0.419372	0.047338
47	C	0.535572	0.43819	0.275243
48	H	0.541429	0.431317	0.243166
49	N	0.580868	0.394322	0.302124
50	H	0.607369	0.409881	0.278741
51	N	0.405902	0.596973	0.023186
52	H	0.379349	0.581973	0.046576
53	C	0.416798	0.859748	0.015456
54	C	0.429654	0.880472	0.305399
55	N	0.459639	0.933161	0.298744
56	C	0.478285	0.968284	0.999227
57	C	0.466681	0.950078	0.043447
58	C	0.436288	0.895496	0.051295
59	H	0.428729	0.881748	0.083133
60	C	0.509778	0.022722	0.324797
61	C	0.571137	0.131653	0.31041
62	C	0.558871	0.11179	0.020758
63	H	0.418981	0.856167	0.278474
64	N	0.521864	0.042725	0.283205
65	C	0.528242	0.057227	0.028272
66	N	0.515056	0.036708	0.069677
67	N	0.485996	0.985858	0.07689
68	H	0.570127	0.13702	0.047164
69	C	0.551262	0.095229	0.275073
70	H	0.558172	0.107947	0.242995
71	N	0.595204	0.184407	0.301946
72	H	0.579641	0.195386	0.278597
73	N	0.392571	0.806805	0.023069
74	H	0.407621	0.795275	0.046435
75	C	0.129832	0.555158	0.015738
76	C	0.109125	0.547359	0.305681
77	N	0.056435	0.524612	0.299021
78	C	0.021308	0.508109	0.999505
79	C	0.039511	0.514687	0.043727
80	C	0.094092	0.538857	0.051581
81	H	0.107838	0.544996	0.083418
82	C	0.966871	0.48514	0.325072
83	C	0.85793	0.437435	0.310678
84	C	0.877793	0.4451	0.021029
85	H	0.133436	0.560889	0.278751
86	N	0.946869	0.477203	0.283479
87	C	0.932357	0.469061	0.028544
88	N	0.952874	0.476377	0.069949
89	N	0.003728	0.498188	0.077166
90	H	0.852564	0.431016	0.047431
91	C	0.894362	0.454044	0.275344
92	H	0.881645	0.448183	0.243264
93	N	0.805183	0.40864	0.30223
94	H	0.794249	0.382239	0.278762
95	N	0.182779	0.583732	0.023365
96	H	0.194382	0.610337	0.046714
97	C	0.339456	0.715965	0.333394
98	C	0.286403	0.674825	0.33309
99	C	0.27356	0.621358	0.333546
100	C	0.314702	0.609444	0.33314
101	C	0.368172	0.65007	0.666782
102	C	0.380084	0.703127	0.333011
103	H	0.305515	0.570676	0.332336
104	H	0.418847	0.732708	0.332098
105	H	0.256819	0.684007	0.33225
106	C	0.35206	0.769318	0.332065
107	C	0.408924	0.637469	0.665486
108	C	0.220204	0.580609	0.332343
109	O	0.45073	0.666165	0.30518
110	O	0.323277	0.78239	0.305161
111	O	0.207031	0.53875	0.305418
112	C	0.648373	0.275711	0.323805
113	C	0.701309	0.31712	0.324193
114	C	0.713813	0.370493	0.323887
115	C	0.672402	0.382017	0.324269
116	C	0.619031	0.34115	0.657206
117	C	0.607504	0.288213	0.32419
118	H	0.681328	0.420696	0.325349
119	H	0.56882	0.25846	0.325214
120	H	0.731061	0.308188	0.325233
121	C	0.636133	0.222463	0.325538
122	C	0.578022	0.353384	0.659014
123	C	0.767058	0.411498	0.325727
124	O	0.536291	0.324097	0.352559
125	O	0.665415	0.20997	0.352381
126	O	0.779482	0.453175	0.352668
127	C	0.43455	0.572676	0.348884
128	C	0.442369	0.559759	0.638834
129	N	0.465103	0.529802	0.632193
130	C	0.481589	0.511177	0.332687
131	C	0.474988	0.522801	0.376904
132	C	0.450813	0.553209	0.384735
133	H	0.444656	0.56081	0.41657
134	C	0.504542	0.479689	0.658273
135	C	0.552106	0.418308	0.643921
136	C	0.544515	0.430605	0.354258
137	H	0.428807	0.570502	0.611904
138	N	0.512473	0.467598	0.61669
139	C	0.520576	0.461234	0.361759
140	N	0.513251	0.474444	0.403156
141	N	0.491458	0.503504	0.410356
142	H	0.558501	0.419372	0.380672
143	C	0.535572	0.43819	0.608576
144	H	0.541429	0.431317	0.576499
145	N	0.580868	0.394322	0.635456
146	H	0.607369	0.409881	0.612076
147	N	0.405902	0.596973	0.356519
148	H	0.379349	0.581973	0.379909
149	C	0.416798	0.859748	0.348791
150	C	0.429654	0.880472	0.638731
151	N	0.459639	0.933161	0.632078
152	C	0.478285	0.968284	0.332561
153	C	0.466681	0.950078	0.376779
154	C	0.436288	0.895496	0.384629
155	H	0.428729	0.881748	0.416464
156	C	0.509778	0.022722	0.658128
157	C	0.571137	0.131653	0.643743
158	C	0.558871	0.11179	0.35409
159	H	0.418981	0.856167	0.611808
160	N	0.521864	0.042725	0.616538
161	C	0.528242	0.057227	0.361603
162	N	0.515056	0.036708	0.403011
163	N	0.485996	0.985858	0.410223
164	H	0.570127	0.13702	0.380497
165	C	0.551262	0.095229	0.608407
166	H	0.558172	0.107947	0.576327
167	N	0.595204	0.184407	0.635281
168	H	0.579641	0.195386	0.611931
169	N	0.392571	0.806805	0.356404
170	H	0.407621	0.795275	0.37977
171	C	0.129832	0.555158	0.349072
172	C	0.109125	0.547359	0.639012
173	N	0.056435	0.524612	0.632355
174	C	0.021308	0.508109	0.332839
175	C	0.039511	0.514687	0.37706
176	C	0.094092	0.538857	0.384913
177	H	0.107838	0.544996	0.416752
178	C	0.966871	0.48514	0.658406
179	C	0.85793	0.437435	0.64401
180	C	0.877793	0.4451	0.354361
181	H	0.133436	0.560889	0.612083
182	N	0.946869	0.477203	0.616813
183	C	0.932357	0.469061	0.361878
184	N	0.952874	0.476377	0.403282
185	N	0.003728	0.498188	0.410498
186	H	0.852564	0.431016	0.380765
187	C	0.894362	0.454044	0.608678
188	H	0.881645	0.448183	0.576598
189	N	0.805183	0.40864	0.635565
190	H	0.794249	0.382239	0.612096
191	N	0.182779	0.583732	0.356698
192	H	0.194382	0.610337	0.380048
193	C	0.339456	0.715965	0.666729
194	C	0.286403	0.674825	0.666425
195	C	0.27356	0.621358	0.666878
196	C	0.314702	0.609444	0.666474
197	C	0.368172	0.65007	0.000116
198	C	0.380084	0.703127	0.666342
199	H	0.305515	0.570676	0.665668
200	H	0.418847	0.732708	0.665433
201	H	0.256819	0.684007	0.665585
202	C	0.35206	0.769318	0.665397
203	C	0.408924	0.637469	0.998819
204	C	0.220204	0.580609	0.665678
205	O	0.45073	0.666165	0.638513
206	O	0.323277	0.78239	0.638493
207	O	0.207031	0.53875	0.638751
208	C	0.648373	0.275711	0.657136
209	C	0.701309	0.31712	0.657526
210	C	0.713813	0.370493	0.657219
211	C	0.672402	0.382017	0.657602
212	C	0.619031	0.34115	0.99054
213	C	0.607504	0.288213	0.657523
214	H	0.681328	0.420696	0.658683
215	H	0.56882	0.25846	0.658548
216	H	0.731061	0.308188	0.658564
217	C	0.636133	0.222463	0.658872
218	C	0.578022	0.353384	0.992345
219	C	0.767058	0.411498	0.65906
220	O	0.536291	0.324097	0.685894
221	O	0.665415	0.20997	0.685712
222	O	0.779482	0.453175	0.686003
223	C	0.43455	0.572676	0.682215
224	C	0.442369	0.559759	0.972169
225	N	0.465103	0.529802	0.965528
226	C	0.481589	0.511177	0.666022
227	C	0.474988	0.522801	0.710236
228	C	0.450813	0.553209	0.71807
229	H	0.444656	0.56081	0.749905
230	C	0.504542	0.479689	0.991608
231	C	0.552106	0.418308	0.977256
232	C	0.544515	0.430605	0.687593
233	H	0.428807	0.570502	0.945239
234	N	0.512473	0.467598	0.950022
235	C	0.520576	0.461234	0.695093
236	N	0.513251	0.474444	0.736491
237	N	0.491458	0.503504	0.743687
238	H	0.558501	0.419372	0.714004
239	C	0.535572	0.43819	0.94191
240	H	0.541429	0.431317	0.909834
241	N	0.580868	0.394322	0.96879
242	H	0.607369	0.409881	0.945407
243	N	0.405902	0.596973	0.689851
244	H	0.379349	0.581973	0.71324
245	C	0.416798	0.859748	0.682123
246	C	0.429654	0.880472	0.972066
247	N	0.459639	0.933161	0.965409
248	C	0.478285	0.968284	0.665893
249	C	0.466681	0.950078	0.710113
250	C	0.436288	0.895496	0.717961
251	H	0.428729	0.881748	0.749799
252	C	0.509778	0.022722	0.991463
253	C	0.571137	0.131653	0.977077
254	C	0.558871	0.11179	0.687424
255	H	0.418981	0.856167	0.94514
256	N	0.521864	0.042725	0.949873
257	C	0.528242	0.057227	0.694938
258	N	0.515056	0.036708	0.736342
259	N	0.485996	0.985858	0.743555
260	H	0.570127	0.13702	0.713829
261	C	0.551262	0.095229	0.941738
262	H	0.558172	0.107947	0.909662
263	N	0.595204	0.184407	0.968612
264	H	0.579641	0.195386	0.945262
265	N	0.392571	0.806805	0.689735
266	H	0.407621	0.795275	0.713101
267	C	0.129832	0.555158	0.682403
268	C	0.109125	0.547359	0.972347
269	N	0.056435	0.524612	0.965687
270	C	0.021308	0.508109	0.66617
271	C	0.039511	0.514687	0.710394
272	C	0.094092	0.538857	0.718248
273	H	0.107838	0.544996	0.750083
274	C	0.966871	0.48514	0.991737
275	C	0.85793	0.437435	0.977345
276	C	0.877793	0.4451	0.687696
277	H	0.133436	0.560889	0.945417
278	N	0.946869	0.477203	0.950144
279	C	0.932357	0.469061	0.695209
280	N	0.952874	0.476377	0.736617
281	N	0.003728	0.498188	0.743833
282	H	0.852564	0.431016	0.714096
283	C	0.894362	0.454044	0.942009
284	H	0.881645	0.448183	0.90993
285	N	0.805183	0.40864	0.968896
286	H	0.794249	0.382239	0.945427
287	N	0.182779	0.583732	0.690033
288	H	0.194382	0.610337	0.713379
