data_C198H108N18O36_2018-02-15_10:41:45
#******************************************
#
# CIF file created by Zeo++
# Zeo++ is an open source package to
# analyze microporous materials
#
#*******************************************

_cell_length_a		29.8803   
_cell_length_b		29.8803   
_cell_length_c		29.611   
_cell_angle_alpha		90   
_cell_angle_beta		90   
_cell_angle_gamma		120   

_symmetry_space_group_name_H-M		'P1'
_symmetry_Int_Tables_number		1
_symmetry_cell_setting		Monoclinic

loop_
_symmetry_equiv_pos_as_xyz
'+x,+y,+z'

loop_
_atom_site_label
_atom_site_type_symbol
_atom_site_fract_x
_atom_site_fract_y
_atom_site_fract_z
1	C	0.038348	0.520777	0.047757
2	C	0.065103	0.534356	0.339408
3	C	0.035488	0.519555	0.298992
4	H	0.058893	0.531844	0.077314
5	N	0.060652	0.530631	0.256503
6	O	0.049256	0.490105	0.234904
7	O	0.04948	0.558524	0.232702
8	C	0.038348	0.520777	0.381092
9	C	0.065103	0.534356	0.67274
10	C	0.035488	0.519555	0.632326
11	H	0.058893	0.531844	0.410648
12	N	0.060652	0.530631	0.589835
13	O	0.049256	0.490105	0.568238
14	O	0.04948	0.558524	0.566036
15	C	0.038348	0.520777	0.714424
16	C	0.065103	0.534356	0.006076
17	C	0.035488	0.519555	0.965658
18	H	0.058893	0.531844	0.74398
19	N	0.060652	0.530631	0.923171
20	O	0.049256	0.490105	0.901571
21	O	0.04948	0.558524	0.899369
22	C	0.148774	0.544852	0.032003
23	C	0.120534	0.562087	0.006042
24	C	0.149014	0.608093	0.980838
25	H	0.129826	0.511776	0.050828
26	H	0.130294	0.622751	0.962413
27	C	0.148774	0.544852	0.365337
28	C	0.120534	0.562087	0.339374
29	C	0.149014	0.608093	0.314173
30	H	0.129826	0.511776	0.384161
31	H	0.130294	0.622751	0.295746
32	C	0.148774	0.544852	0.69867
33	C	0.120534	0.562087	0.672706
34	C	0.149014	0.608093	0.647506
35	H	0.129826	0.511776	0.717494
36	H	0.130294	0.622751	0.629081
37	C	0.203207	0.572154	0.032272
38	C	0.203435	0.635044	0.980747
39	C	0.203207	0.572154	0.365604
40	C	0.203435	0.635044	0.314079
41	C	0.203207	0.572154	0.69894
42	C	0.203435	0.635044	0.647412
43	C	0.287571	0.64545	0.006454
44	C	0.315843	0.618968	0.0064
45	C	0.370579	0.645134	0.006332
46	C	0.397088	0.699873	0.006248
47	C	0.370956	0.728481	0.00616
48	C	0.316198	0.700202	0.006326
49	C	0.398257	0.617225	0.006167
50	C	0.381457	0.57203	0.979761
51	C	0.408546	0.544694	0.979599
52	C	0.454142	0.561774	0.005323
53	C	0.470902	0.606702	0.031959
54	C	0.443515	0.633737	0.032419
55	C	0.23194	0.617793	0.006461
56	C	0.398926	0.784098	0.005731
57	C	0.382185	0.813085	0.031362
58	C	0.409285	0.867504	0.030637
59	C	0.454593	0.895482	0.004414
60	C	0.471933	0.866758	0.979342
61	C	0.444483	0.812335	0.979704
62	H	0.221685	0.55852	0.052286
63	H	0.222068	0.66735	0.960974
64	H	0.350207	0.794814	0.051558
65	H	0.395296	0.88664	0.049377
66	H	0.458007	0.793492	0.960035
67	H	0.505188	0.885292	0.960734
68	H	0.456786	0.66548	0.052863
69	H	0.503684	0.620494	0.051147
70	H	0.394284	0.511734	0.96063
71	H	0.349414	0.558721	0.959691
72	H	0.295992	0.579439	0.006376
73	H	0.296573	0.720099	0.006288
74	H	0.436617	0.719481	0.00618
75	C	0.731675	0.367397	0.008496
76	C	0.703275	0.393742	0.00892
77	C	0.648565	0.367447	0.007483
78	C	0.622229	0.312746	0.006001
79	C	0.648495	0.284281	0.006505
80	C	0.703235	0.312651	0.007498
81	C	0.620769	0.395214	0.007725
82	C	0.638198	0.441363	0.982588
83	C	0.611077	0.468673	0.98299
84	C	0.565245	0.451005	0.008532
85	C	0.547336	0.404577	0.033188
86	C	0.574673	0.377492	0.033019
87	C	0.787279	0.395264	0.009123
88	C	0.81606	0.441228	0.983729
89	C	0.870493	0.468534	0.984124
90	C	0.898645	0.451016	0.009863
91	C	0.870108	0.404767	0.034739
92	C	0.815682	0.377727	0.034616
93	C	0.620556	0.228685	0.006366
94	C	0.637832	0.199938	0.981068
95	C	0.610798	0.145508	0.981578
96	C	0.565181	0.117346	0.007376
97	C	0.547363	0.145845	0.032165
98	C	0.574654	0.200268	0.031925
99	H	0.889502	0.501787	0.96554
100	H	0.797605	0.455039	0.963889
101	H	0.888797	0.389935	0.052982
102	H	0.796949	0.345108	0.054002
103	H	0.670145	0.218407	0.961285
104	H	0.625115	0.1265	0.963071
105	H	0.560782	0.218988	0.051348
106	H	0.513902	0.127144	0.050481
107	H	0.560675	0.34473	0.052231
108	H	0.513736	0.389669	0.051318
109	H	0.625491	0.502092	0.964615
110	H	0.670696	0.455348	0.963021
111	H	0.722949	0.433155	0.011772
112	H	0.722957	0.292853	0.007556
113	H	0.582808	0.293099	0.003205
114	C	0.537468	0.478643	0.008624
115	C	0.522436	0.493046	0.049134
116	C	0.494869	0.520162	0.046806
117	C	0.481857	0.534074	0.338547
118	C	0.497599	0.520382	0.298046
119	H	0.484007	0.529711	0.076435
120	C	0.524792	0.492887	0.300366
121	H	0.53532	0.482998	0.270734
122	N	0.487799	0.535952	0.255724
123	N	0.536748	0.482005	0.091533
124	O	0.529028	0.565975	0.235396
125	O	0.497873	0.454173	0.115549
126	O	0.566011	0.52262	0.11298
127	O	0.460811	0.497822	0.230658
128	C	0.537592	0.061941	0.007558
129	C	0.522976	0.032541	0.048084
130	C	0.495734	0.97786	0.045773
131	C	0.482366	0.950906	0.337522
132	C	0.497026	0.980322	0.296995
133	H	0.4864	0.95746	0.075407
134	C	0.5243	0.035009	0.299304
135	H	0.53366	0.055429	0.26968
136	N	0.482876	0.954959	0.254595
137	N	0.537109	0.057923	0.090476
138	O	0.453678	0.96622	0.232941
139	O	0.566339	0.046699	0.112124
140	O	0.498062	0.046749	0.114308
141	O	0.521919	0.966093	0.230771
142	C	0.954063	0.478682	0.009846
143	C	0.983671	0.493413	0.050262
144	C	0.980813	0.492234	0.301498
145	H	0.960258	0.481159	0.271944
146	N	0.958479	0.482179	0.092742
147	O	0.969877	0.522624	0.114472
148	O	0.969654	0.4542	0.11642
149	C	0.287571	0.64545	0.339786
150	C	0.315843	0.618968	0.339732
151	C	0.370579	0.645134	0.339668
152	C	0.397088	0.699873	0.339583
153	C	0.370956	0.728481	0.339496
154	C	0.316198	0.700202	0.339658
155	C	0.398257	0.617225	0.339499
156	C	0.381457	0.57203	0.313094
157	C	0.408546	0.544694	0.312933
158	C	0.454142	0.561774	0.338655
159	C	0.470902	0.606702	0.365293
160	C	0.443515	0.633737	0.365753
161	C	0.23194	0.617793	0.339793
162	C	0.398926	0.784098	0.339063
163	C	0.382185	0.813085	0.364696
164	C	0.409285	0.867504	0.36397
165	C	0.454593	0.895482	0.337746
166	C	0.471933	0.866758	0.312676
167	C	0.444483	0.812335	0.313037
168	H	0.221685	0.55852	0.38562
169	H	0.222068	0.66735	0.294308
170	H	0.350207	0.794814	0.384891
171	H	0.395296	0.88664	0.382709
172	H	0.458007	0.793492	0.293368
173	H	0.505188	0.885292	0.29407
174	H	0.456786	0.66548	0.386194
175	H	0.503684	0.620494	0.384482
176	H	0.394284	0.511734	0.293962
177	H	0.349414	0.558721	0.293026
178	H	0.295992	0.579439	0.339712
179	H	0.296573	0.720099	0.339624
180	H	0.436617	0.719481	0.339512
181	C	0.731675	0.367397	0.341829
182	C	0.703275	0.393742	0.342255
183	C	0.648565	0.367447	0.340816
184	C	0.622229	0.312746	0.339333
185	C	0.648495	0.284281	0.339837
186	C	0.703235	0.312651	0.340833
187	C	0.620769	0.395214	0.341059
188	C	0.638198	0.441363	0.315921
189	C	0.611077	0.468673	0.316324
190	C	0.565245	0.451005	0.341866
191	C	0.547336	0.404577	0.366523
192	C	0.574673	0.377492	0.366354
193	C	0.787279	0.395264	0.342457
194	C	0.81606	0.441228	0.317063
195	C	0.870493	0.468534	0.317459
196	C	0.898645	0.451016	0.343197
197	C	0.870108	0.404767	0.368073
198	C	0.815682	0.377727	0.367948
199	C	0.620556	0.228685	0.339702
200	C	0.637832	0.199938	0.314402
201	C	0.610798	0.145508	0.31491
202	C	0.565181	0.117346	0.340708
203	C	0.547363	0.145845	0.365499
204	C	0.574654	0.200268	0.36526
205	H	0.889502	0.501787	0.298872
206	H	0.797605	0.455039	0.297223
207	H	0.888797	0.389935	0.386316
208	H	0.796949	0.345108	0.387336
209	H	0.670145	0.218407	0.29462
210	H	0.625115	0.1265	0.296406
211	H	0.560782	0.218988	0.384681
212	H	0.513902	0.127144	0.383814
213	H	0.560675	0.34473	0.385563
214	H	0.513736	0.389669	0.384651
215	H	0.625491	0.502092	0.297949
216	H	0.670696	0.455348	0.296353
217	H	0.722949	0.433155	0.345105
218	H	0.722957	0.292853	0.34089
219	H	0.582808	0.293099	0.33654
220	C	0.537468	0.478643	0.341957
221	C	0.522436	0.493046	0.382466
222	C	0.494869	0.520162	0.380139
223	C	0.481857	0.534074	0.671879
224	C	0.497599	0.520382	0.63138
225	H	0.484007	0.529711	0.40977
226	C	0.524792	0.492887	0.6337
227	H	0.53532	0.482998	0.604066
228	N	0.487799	0.535952	0.589058
229	N	0.536748	0.482005	0.424866
230	O	0.529028	0.565975	0.568728
231	O	0.497873	0.454173	0.448881
232	O	0.566011	0.52262	0.446314
233	O	0.460811	0.497822	0.56399
234	C	0.537592	0.061941	0.34089
235	C	0.522976	0.032541	0.381419
236	C	0.495734	0.97786	0.379106
237	C	0.482366	0.950906	0.670856
238	C	0.497026	0.980322	0.630327
239	H	0.4864	0.95746	0.40874
240	C	0.5243	0.035009	0.632637
241	H	0.53366	0.055429	0.603013
242	N	0.482876	0.954959	0.587927
243	N	0.537109	0.057923	0.423809
244	O	0.453678	0.96622	0.566273
245	O	0.566339	0.046699	0.445456
246	O	0.498062	0.046749	0.447641
247	O	0.521919	0.966093	0.564105
248	C	0.954063	0.478682	0.34318
249	C	0.983671	0.493413	0.383594
250	C	0.980813	0.492234	0.634832
251	H	0.960258	0.481159	0.605275
252	N	0.958479	0.482179	0.426075
253	O	0.969877	0.522624	0.447807
254	O	0.969654	0.4542	0.449752
255	C	0.287571	0.64545	0.673122
256	C	0.315843	0.618968	0.673068
257	C	0.370579	0.645134	0.673
258	C	0.397088	0.699873	0.672916
259	C	0.370956	0.728481	0.672828
260	C	0.316198	0.700202	0.67299
261	C	0.398257	0.617225	0.672835
262	C	0.381457	0.57203	0.646425
263	C	0.408546	0.544694	0.646267
264	C	0.454142	0.561774	0.671987
265	C	0.470902	0.606702	0.698626
266	C	0.443515	0.633737	0.699085
267	C	0.23194	0.617793	0.673128
268	C	0.398926	0.784098	0.672396
269	C	0.382185	0.813085	0.698028
270	C	0.409285	0.867504	0.697305
271	C	0.454593	0.895482	0.671078
272	C	0.471933	0.866758	0.64601
273	C	0.444483	0.812335	0.646371
274	H	0.221685	0.55852	0.718953
275	H	0.222068	0.66735	0.627642
276	H	0.350207	0.794814	0.718223
277	H	0.395296	0.88664	0.716042
278	H	0.458007	0.793492	0.6267
279	H	0.505188	0.885292	0.627402
280	H	0.456786	0.66548	0.71953
281	H	0.503684	0.620494	0.717814
282	H	0.394284	0.511734	0.627294
283	H	0.349414	0.558721	0.626359
284	H	0.295992	0.579439	0.673044
285	H	0.296573	0.720099	0.672956
286	H	0.436617	0.719481	0.672848
287	C	0.731675	0.367397	0.675161
288	C	0.703275	0.393742	0.675587
289	C	0.648565	0.367447	0.674148
290	C	0.622229	0.312746	0.672666
291	C	0.648495	0.284281	0.673169
292	C	0.703235	0.312651	0.674165
293	C	0.620769	0.395214	0.674391
294	C	0.638198	0.441363	0.649252
295	C	0.611077	0.468673	0.649657
296	C	0.565245	0.451005	0.675199
297	C	0.547336	0.404577	0.699855
298	C	0.574673	0.377492	0.699686
299	C	0.787279	0.395264	0.67579
300	C	0.81606	0.441228	0.650397
301	C	0.870493	0.468534	0.650792
302	C	0.898645	0.451016	0.676529
303	C	0.870108	0.404767	0.701405
304	C	0.815682	0.377727	0.701283
305	C	0.620556	0.228685	0.673034
306	C	0.637832	0.199938	0.647736
307	C	0.610798	0.145508	0.648242
308	C	0.565181	0.117346	0.674044
309	C	0.547363	0.145845	0.698832
310	C	0.574654	0.200268	0.698592
311	H	0.889502	0.501787	0.632204
312	H	0.797605	0.455039	0.630556
313	H	0.888797	0.389935	0.719648
314	H	0.796949	0.345108	0.720668
315	H	0.670145	0.218407	0.627953
316	H	0.625115	0.1265	0.629739
317	H	0.560782	0.218988	0.718014
318	H	0.513902	0.127144	0.717146
319	H	0.560675	0.34473	0.718899
320	H	0.513736	0.389669	0.717983
321	H	0.625491	0.502092	0.631282
322	H	0.670696	0.455348	0.629685
323	H	0.722949	0.433155	0.678437
324	H	0.722957	0.292853	0.674223
325	H	0.582808	0.293099	0.669873
326	C	0.537468	0.478643	0.67529
327	C	0.522436	0.493046	0.715802
328	C	0.494869	0.520162	0.713472
329	C	0.481857	0.534074	0.005211
330	C	0.497599	0.520382	0.964713
331	H	0.484007	0.529711	0.743102
332	C	0.524792	0.492887	0.967033
333	H	0.53532	0.482998	0.937398
334	N	0.487799	0.535952	0.922391
335	N	0.536748	0.482005	0.758198
336	O	0.529028	0.565975	0.902064
337	O	0.497873	0.454173	0.782216
338	O	0.566011	0.52262	0.779646
339	O	0.460811	0.497822	0.897326
340	C	0.537592	0.061941	0.674223
341	C	0.522976	0.032541	0.714751
342	C	0.495734	0.97786	0.712438
343	C	0.482366	0.950906	0.004188
344	C	0.497026	0.980322	0.963662
345	H	0.4864	0.95746	0.742072
346	C	0.5243	0.035009	0.965969
347	H	0.53366	0.055429	0.936345
348	N	0.482876	0.954959	0.921263
349	N	0.537109	0.057923	0.757141
350	O	0.453678	0.96622	0.899608
351	O	0.566339	0.046699	0.778788
352	O	0.498062	0.046749	0.780973
353	O	0.521919	0.966093	0.897437
354	C	0.954063	0.478682	0.676512
355	C	0.983671	0.493413	0.71693
356	C	0.980813	0.492234	0.968164
357	H	0.960258	0.481159	0.938611
358	N	0.958479	0.482179	0.759407
359	O	0.969877	0.522624	0.781139
360	O	0.969654	0.4542	0.783088
