data_C174H138N36O6_2018-02-15_10:34:41
#******************************************
#
# CIF file created by Zeo++
# Zeo++ is an open source package to
# analyze microporous materials
#
#*******************************************

_cell_length_a		25.2533   
_cell_length_b		25.2549   
_cell_length_c		30.0442   
_cell_angle_alpha		90   
_cell_angle_beta		90   
_cell_angle_gamma		89.9623   

_symmetry_space_group_name_H-M		'P1'
_symmetry_Int_Tables_number		1
_symmetry_cell_setting		Monoclinic

loop_
_symmetry_equiv_pos_as_xyz
'+x,+y,+z'

loop_
_atom_site_label
_atom_site_type_symbol
_atom_site_fract_x
_atom_site_fract_y
_atom_site_fract_z
1	C	0.08075	0.850043	0.336841
2	C	0.123842	0.883605	0.336871
3	C	0.105191	0.935674	0.334967
4	N	0.051719	0.931742	0.333449
5	C	0.034818	0.880865	0.334887
6	C	0.982286	0.860643	0.334887
7	C	0.935603	0.891833	0.33313
8	N	0.932039	0.94513	0.331276
9	C	0.881192	0.96163	0.330286
10	C	0.850081	0.915932	0.33154
11	C	0.883654	0.872867	0.333289
12	C	0.86234	0.014521	0.328661
13	C	0.89484	0.060472	0.328306
14	N	0.948336	0.064406	0.329338
15	C	0.965223	0.115309	0.328418
16	C	0.919252	0.146119	0.326949
17	C	0.876179	0.112547	0.326671
18	C	0.017745	0.135595	0.328919
19	C	0.064438	0.104384	0.33052
20	N	0.068003	0.051057	0.331753
21	C	0.118836	0.034538	0.333196
22	C	0.149948	0.080249	0.332847
23	C	0.116397	0.123328	0.330976
24	C	0.137661	0.981645	0.334967
25	C	0.193323	0.974312	0.338335
26	C	0.224995	0.971097	0.299713
27	C	0.280121	0.96448	0.303397
28	C	0.304636	0.961028	0.345625
29	C	0.272618	0.963942	0.050822
30	C	0.217506	0.970574	0.047258
31	C	0.024202	0.191496	0.327535
32	C	0.021528	0.21876	0.286568
33	C	0.027286	0.274098	0.285277
34	C	0.036357	0.303218	0.32474
35	C	0.039184	0.275663	0.032316
36	C	0.033004	0.22036	0.033765
37	C	0.806557	0.021884	0.327124
38	C	0.777833	0.032545	0.033105
39	C	0.722592	0.03933	0.0315
40	C	0.69497	0.035292	0.324025
41	C	0.723995	0.024545	0.2848
42	C	0.779256	0.018086	0.286243
43	C	0.97573	0.804908	0.338285
44	C	0.971647	0.780778	0.047204
45	C	0.972991	0.773195	0.299668
46	C	0.966386	0.718081	0.30335
47	C	0.96253	0.693619	0.345575
48	C	0.965118	0.725668	0.050765
49	H	0.962571	0.709113	0.081768
50	H	0.973521	0.803118	0.0756
51	H	0.964647	0.695792	0.27494
52	H	0.975823	0.789964	0.268737
53	H	0.083251	0.809683	0.338329
54	H	0.16237	0.871299	0.338355
55	H	0.028381	0.961701	0.332053
56	H	0.971687	0.034448	0.330552
57	H	0.871546	0.834292	0.334657
58	H	0.809676	0.913643	0.331564
59	H	0.796878	0.035208	0.063103
60	H	0.702598	0.046528	0.060494
61	H	0.799341	0.010269	0.257376
62	H	0.705006	0.021344	0.254827
63	H	0.837645	0.124885	0.325519
64	H	0.916671	0.186495	0.326072
65	H	0.190346	0.082531	0.333569
66	H	0.128535	0.161915	0.330215
67	H	0.01505	0.198584	0.257518
68	H	0.024933	0.293053	0.255234
69	H	0.034865	0.201348	0.063823
70	H	0.045151	0.295735	0.061465
71	H	0.195223	0.972922	0.075662
72	H	0.289221	0.961784	0.081829
73	H	0.302396	0.962564	0.274984
74	H	0.208209	0.973817	0.268779
75	C	0.041507	0.361765	0.322886
76	H	0.067892	0.372556	0.295453
77	H	0.060028	0.376145	0.020193
78	C	0.363042	0.955314	0.348936
79	H	0.374596	0.919618	0.33071
80	H	0.375413	0.950071	0.050254
81	C	0.956509	0.635258	0.348886
82	H	0.920751	0.623957	0.330654
83	H	0.951195	0.622924	0.050203
84	C	0.636448	0.040853	0.322036
85	H	0.625909	0.067062	0.294413
86	H	0.622053	0.059713	0.019199
87	C	0.991166	0.443256	0.317951
88	N	0.995871	0.466336	0.025316
89	C	0.999619	0.519312	0.031475
90	C	0.998828	0.552652	0.993887
91	N	0.994035	0.529789	0.286572
92	C	0.989889	0.476663	0.279887
93	H	0.00352	0.534284	0.062879
94	C	0.984183	0.457336	0.233519
95	O	0.026229	0.422539	0.22058
96	H	0.982312	0.490439	0.210045
97	H	0.94688	0.43582	0.230656
98	H	0.05935	0.443086	0.219782
99	N	0.988807	0.387291	0.317578
100	H	0.970106	0.373679	0.289548
101	N	0.00331	0.60815	0.99615
102	H	0.036956	0.61757	0.013686
103	C	0.554705	0.99082	0.317516
104	N	0.531774	0.995243	0.024964
105	C	0.478804	0.998842	0.03128
106	C	0.445316	0.99811	0.993784
107	N	0.468037	0.993619	0.286388
108	C	0.521157	0.989691	0.279537
109	H	0.463937	0.002495	0.062741
110	C	0.540327	0.984227	0.233098
111	O	0.57496	0.026372	0.220197
112	H	0.507136	0.982422	0.209709
113	H	0.561929	0.946971	0.230048
114	H	0.554323	0.059467	0.219565
115	N	0.610655	0.988286	0.316999
116	H	0.624096	0.96924	0.289069
117	N	0.389792	0.002288	0.99621
118	H	0.380223	0.035841	0.013831
119	C	0.08075	0.850043	0.670174
120	C	0.123842	0.883605	0.670203
121	C	0.105191	0.935674	0.668303
122	N	0.051719	0.931742	0.666782
123	C	0.034818	0.880865	0.66822
124	C	0.982286	0.860643	0.66822
125	C	0.935603	0.891833	0.666462
126	N	0.932039	0.94513	0.664608
127	C	0.881192	0.96163	0.66362
128	C	0.850081	0.915932	0.664871
129	C	0.883654	0.872867	0.666622
130	C	0.86234	0.014521	0.661992
131	C	0.89484	0.060472	0.661639
132	N	0.948336	0.064406	0.662671
133	C	0.965223	0.115309	0.661749
134	C	0.919252	0.146119	0.660281
135	C	0.876179	0.112547	0.660005
136	C	0.017745	0.135595	0.662252
137	C	0.064438	0.104384	0.663853
138	N	0.068003	0.051057	0.665084
139	C	0.118836	0.034538	0.666529
140	C	0.149948	0.080249	0.666179
141	C	0.116397	0.123328	0.664309
142	C	0.137661	0.981645	0.6683
143	C	0.193323	0.974312	0.671668
144	C	0.224995	0.971097	0.633045
145	C	0.280121	0.96448	0.636729
146	C	0.304636	0.961028	0.678957
147	C	0.272618	0.963942	0.384155
148	C	0.217506	0.970574	0.38059
149	C	0.024202	0.191496	0.660867
150	C	0.021528	0.21876	0.619901
151	C	0.027286	0.274098	0.618609
152	C	0.036357	0.303218	0.658075
153	C	0.039184	0.275663	0.365648
154	C	0.033004	0.22036	0.367096
155	C	0.806557	0.021884	0.660458
156	C	0.777833	0.032545	0.366437
157	C	0.722592	0.03933	0.364833
158	C	0.69497	0.035292	0.657359
159	C	0.723995	0.024545	0.618133
160	C	0.779256	0.018086	0.619575
161	C	0.97573	0.804908	0.671621
162	C	0.971647	0.780778	0.380537
163	C	0.972991	0.773195	0.633002
164	C	0.966386	0.718081	0.636683
165	C	0.96253	0.693619	0.678907
166	C	0.965118	0.725668	0.384098
167	H	0.962571	0.709113	0.415102
168	H	0.973521	0.803118	0.408931
169	H	0.964647	0.695792	0.608271
170	H	0.975823	0.789964	0.60207
171	H	0.083251	0.809683	0.671661
172	H	0.16237	0.871299	0.671688
173	H	0.028381	0.961701	0.665387
174	H	0.971687	0.034448	0.663886
175	H	0.871546	0.834292	0.66799
176	H	0.809676	0.913643	0.664898
177	H	0.796878	0.035208	0.396436
178	H	0.702598	0.046528	0.393827
179	H	0.799341	0.010269	0.59071
180	H	0.705006	0.021344	0.588161
181	H	0.837645	0.124885	0.658854
182	H	0.916671	0.186495	0.659406
183	H	0.190346	0.082531	0.666902
184	H	0.128535	0.161915	0.663547
185	H	0.01505	0.198584	0.59085
186	H	0.024933	0.293053	0.588567
187	H	0.034865	0.201348	0.397155
188	H	0.045151	0.295735	0.394799
189	H	0.195223	0.972922	0.408995
190	H	0.289221	0.961784	0.415162
191	H	0.302396	0.962564	0.608318
192	H	0.208209	0.973817	0.602114
193	C	0.041507	0.361765	0.656217
194	H	0.067892	0.372556	0.628784
195	H	0.060028	0.376145	0.353526
196	C	0.363042	0.955314	0.682272
197	H	0.374596	0.919618	0.664043
198	H	0.375413	0.950071	0.383589
199	C	0.956509	0.635258	0.682219
200	H	0.920751	0.623957	0.663986
201	H	0.951195	0.622924	0.383535
202	C	0.636448	0.040853	0.655369
203	H	0.625909	0.067062	0.627746
204	H	0.622053	0.059713	0.352531
205	C	0.991166	0.443256	0.651285
206	N	0.995871	0.466336	0.358649
207	C	0.999619	0.519312	0.364806
208	C	0.998828	0.552652	0.32722
209	N	0.994035	0.529789	0.619904
210	C	0.989889	0.476663	0.613221
211	H	0.00352	0.534284	0.39621
212	C	0.984183	0.457336	0.566852
213	O	0.026229	0.422539	0.553911
214	H	0.982312	0.490439	0.543377
215	H	0.94688	0.43582	0.56399
216	H	0.05935	0.443086	0.553116
217	N	0.988807	0.387291	0.650912
218	H	0.970106	0.373679	0.62288
219	N	0.00331	0.60815	0.329484
220	H	0.036956	0.61757	0.347019
221	C	0.554705	0.99082	0.650849
222	N	0.531774	0.995243	0.358296
223	C	0.478804	0.998842	0.364613
224	C	0.445316	0.99811	0.327117
225	N	0.468037	0.993619	0.619721
226	C	0.521157	0.989691	0.612868
227	H	0.463937	0.002495	0.396074
228	C	0.540327	0.984227	0.566433
229	O	0.57496	0.026372	0.553529
230	H	0.507136	0.982422	0.543041
231	H	0.561929	0.946971	0.563381
232	H	0.554323	0.059467	0.552899
233	N	0.610655	0.988286	0.650333
234	H	0.624096	0.96924	0.622404
235	N	0.389792	0.002288	0.329544
236	H	0.380223	0.035841	0.347162
237	C	0.08075	0.850043	0.003508
238	C	0.123842	0.883605	0.003538
239	C	0.105191	0.935674	0.001636
240	N	0.051719	0.931742	0.000115
241	C	0.034818	0.880865	0.001553
242	C	0.982286	0.860643	0.001554
243	C	0.935603	0.891833	0.999797
244	N	0.932039	0.94513	0.997941
245	C	0.881192	0.96163	0.996952
246	C	0.850081	0.915932	0.998204
247	C	0.883654	0.872867	0.999956
248	C	0.86234	0.014521	0.995325
249	C	0.89484	0.060472	0.994972
250	N	0.948336	0.064406	0.996004
251	C	0.965223	0.115309	0.995082
252	C	0.919252	0.146119	0.993614
253	C	0.876179	0.112547	0.993338
254	C	0.017745	0.135595	0.995584
255	C	0.064438	0.104384	0.997185
256	N	0.068003	0.051057	0.99842
257	C	0.118836	0.034538	0.999862
258	C	0.149948	0.080249	0.999514
259	C	0.116397	0.123328	0.997641
260	C	0.137661	0.981645	0.001634
261	C	0.193323	0.974312	0.005003
262	C	0.224995	0.971097	0.966377
263	C	0.280121	0.96448	0.970062
264	C	0.304636	0.961028	0.012292
265	C	0.272618	0.963942	0.717487
266	C	0.217506	0.970574	0.713922
267	C	0.024202	0.191496	0.9942
268	C	0.021528	0.21876	0.953234
269	C	0.027286	0.274098	0.951942
270	C	0.036357	0.303218	0.991407
271	C	0.039184	0.275663	0.698981
272	C	0.033004	0.22036	0.700432
273	C	0.806557	0.021884	0.99379
274	C	0.777833	0.032545	0.69977
275	C	0.722592	0.03933	0.698166
276	C	0.69497	0.035292	0.990692
277	C	0.723995	0.024545	0.951466
278	C	0.779256	0.018086	0.952907
279	C	0.97573	0.804908	0.004954
280	C	0.971647	0.780778	0.713869
281	C	0.972991	0.773195	0.966334
282	C	0.966386	0.718081	0.970015
283	C	0.96253	0.693619	0.01224
284	C	0.965118	0.725668	0.717431
285	H	0.962571	0.709113	0.748435
286	H	0.973521	0.803118	0.742264
287	H	0.964647	0.695792	0.941604
288	H	0.975823	0.789964	0.935403
289	H	0.083251	0.809683	0.004997
290	H	0.16237	0.871299	0.005023
291	H	0.028381	0.961701	0.99872
292	H	0.971687	0.034448	0.997219
293	H	0.871546	0.834292	0.001324
294	H	0.809676	0.913643	0.998231
295	H	0.796878	0.035208	0.729769
296	H	0.702598	0.046528	0.72716
297	H	0.799341	0.010269	0.924043
298	H	0.705006	0.021344	0.921494
299	H	0.837645	0.124885	0.992186
300	H	0.916671	0.186495	0.992739
301	H	0.190346	0.082531	0.000236
302	H	0.128535	0.161915	0.996883
303	H	0.01505	0.198584	0.924183
304	H	0.024933	0.293053	0.9219
305	H	0.034865	0.201348	0.730488
306	H	0.045151	0.295735	0.728132
307	H	0.195223	0.972922	0.742327
308	H	0.289221	0.961784	0.748495
309	H	0.302396	0.962564	0.941651
310	H	0.208209	0.973817	0.935446
311	C	0.041507	0.361765	0.98955
312	H	0.067892	0.372556	0.962117
313	H	0.060028	0.376145	0.686859
314	C	0.363042	0.955314	0.015605
315	H	0.374596	0.919618	0.997375
316	H	0.375413	0.950071	0.716921
317	C	0.956509	0.635258	0.015554
318	H	0.920751	0.623957	0.997319
319	H	0.951195	0.622924	0.716868
320	C	0.636448	0.040853	0.988701
321	H	0.625909	0.067062	0.961079
322	H	0.622053	0.059713	0.685864
323	C	0.991166	0.443256	0.984617
324	N	0.995871	0.466336	0.691981
325	C	0.999619	0.519312	0.698142
326	C	0.998828	0.552652	0.660551
327	N	0.994035	0.529789	0.953237
328	C	0.989889	0.476663	0.946553
329	H	0.00352	0.534284	0.729546
330	C	0.984183	0.457336	0.900185
331	O	0.026229	0.422539	0.887244
332	H	0.982312	0.490439	0.876709
333	H	0.94688	0.43582	0.897322
334	H	0.05935	0.443086	0.886448
335	N	0.988807	0.387291	0.984245
336	H	0.970106	0.373679	0.956212
337	N	0.00331	0.60815	0.662818
338	H	0.036956	0.61757	0.680352
339	C	0.554705	0.99082	0.984181
340	N	0.531774	0.995243	0.691629
341	C	0.478804	0.998842	0.697946
342	C	0.445316	0.99811	0.660451
343	N	0.468037	0.993619	0.953054
344	C	0.521157	0.989691	0.946204
345	H	0.463937	0.002495	0.729406
346	C	0.540327	0.984227	0.899766
347	O	0.57496	0.026372	0.886861
348	H	0.507136	0.982422	0.876373
349	H	0.561929	0.946971	0.896713
350	H	0.554323	0.059467	0.886232
351	N	0.610655	0.988286	0.983665
352	H	0.624096	0.96924	0.955736
353	N	0.389792	0.002288	0.662878
354	H	0.380223	0.035841	0.680498
