data_C168H132N42_2018-02-15_10:34:41
#******************************************
#
# CIF file created by Zeo++
# Zeo++ is an open source package to
# analyze microporous materials
#
#*******************************************

_cell_length_a		25.245   
_cell_length_b		25.2467   
_cell_length_c		30.0274   
_cell_angle_alpha		90   
_cell_angle_beta		90   
_cell_angle_gamma		90.0377   

_symmetry_space_group_name_H-M		'P1'
_symmetry_Int_Tables_number		1
_symmetry_cell_setting		Monoclinic

loop_
_symmetry_equiv_pos_as_xyz
'+x,+y,+z'

loop_
_atom_site_label
_atom_site_type_symbol
_atom_site_fract_x
_atom_site_fract_y
_atom_site_fract_z
1	C	0.918448	0.850507	0.998206
2	C	0.875159	0.883739	0.000433
3	C	0.893549	0.935904	0.002429
4	N	0.94711	0.932336	0.001702
5	C	0.964296	0.881569	0.999211
6	C	0.016961	0.861649	0.997426
7	C	0.063423	0.89336	0.997383
8	N	0.066683	0.946737	0.998882
9	C	0.117416	0.963714	0.997553
10	C	0.148777	0.918239	0.995168
11	C	0.115518	0.874867	0.995428
12	C	0.135972	0.016786	0.998266
13	C	0.103056	0.062403	0.000645
14	N	0.049488	0.065937	0.000745
15	C	0.032257	0.116647	0.003752
16	C	0.078029	0.147737	0.005664
17	C	0.121359	0.114534	0.003783
18	C	0.979595	0.136558	0.00504
19	C	0.933105	0.104967	0.004671
20	N	0.929917	0.051591	0.003601
21	C	0.879183	0.034658	0.004716
22	C	0.847757	0.080136	0.006381
23	C	0.88102	0.123518	0.006241
24	C	0.860713	0.981578	0.004503
25	C	0.805077	0.97366	0.007872
26	C	0.781263	0.968122	0.050164
27	C	0.726217	0.960921	0.053888
28	C	0.693834	0.959365	0.015492
29	C	0.717917	0.964918	0.306554
30	C	0.773026	0.971865	0.3027
31	C	0.972767	0.19229	0.008805
32	C	0.967866	0.215966	0.051209
33	C	0.961145	0.271045	0.05514
34	C	0.959415	0.30359	0.016846
35	C	0.96441	0.279648	0.307805
36	C	0.970882	0.22452	0.303748
37	C	0.191688	0.024831	0.995338
38	C	0.214847	0.039154	0.287579
39	C	0.269879	0.0467	0.284224
40	C	0.302989	0.03967	0.988398
41	C	0.279635	0.025274	0.029463
42	C	0.224515	0.018185	0.033016
43	C	0.023804	0.80582	0.993929
44	C	0.035434	0.782569	0.285613
45	C	0.019056	0.773008	0.031823
46	C	0.025564	0.717856	0.027998
47	C	0.037641	0.694463	0.986433
48	C	0.042581	0.727521	0.281991
49	H	0.05076	0.711701	0.251388
50	H	0.038892	0.805571	0.257679
51	H	0.021612	0.694808	0.055838
52	H	0.010539	0.789006	0.062321
53	H	0.916057	0.810181	0.996034
54	H	0.83666	0.871195	1.2e-05
55	H	0.970298	0.962427	0.003261
56	H	0.02633	0.035942	0.997932
57	H	0.127945	0.83639	0.993969
58	H	0.189161	0.916227	0.993566
59	H	0.191839	0.043944	0.259789
60	H	0.285659	0.056587	0.253962
61	H	0.208571	0.007691	0.063098
62	H	0.302726	0.019753	0.057087
63	H	0.15983	0.127093	0.00502
64	H	0.080298	0.188037	0.008327
65	H	0.807346	0.082084	0.007628
66	H	0.868659	0.16203	0.00755
67	H	0.969273	0.193306	0.079462
68	H	0.95805	0.287249	0.086258
69	H	0.974413	0.208128	0.272706
70	H	0.963407	0.302312	0.27956
71	H	0.789519	0.975965	0.271745
72	H	0.695354	0.964134	0.278245
73	H	0.709887	0.957571	0.084943
74	H	0.803767	0.969588	0.078506
75	C	0.953563	0.361959	0.020621
76	H	0.944369	0.373518	0.0549
77	H	0.920171	0.374212	0.333126
78	C	0.635442	0.953439	0.019118
79	H	0.623869	0.943371	0.053223
80	H	0.623101	0.920603	0.331029
81	C	0.04376	0.636119	0.98272
82	H	0.072399	0.623123	0.007793
83	H	0.059861	0.625246	0.283509
84	C	0.361362	0.0458	0.984828
85	H	0.374469	0.073374	0.010701
86	H	0.3723	0.063146	0.286082
87	C	0.994486	0.553561	0.324686
88	N	0.990332	0.531162	0.032332
89	C	0.992475	0.478201	0.039372
90	C	0.999254	0.4443	0.00252
91	N	0.003266	0.466675	0.29492
92	C	0.000999	0.519763	0.287241
93	H	0.989598	0.463633	0.071004
94	N	0.004304	0.536735	0.244579
95	H	0.000749	0.573885	0.236831
96	H	0.007937	0.511457	0.220311
97	N	0.002861	0.388757	0.005757
98	H	0.033629	0.379486	0.026764
99	N	0.992114	0.609339	0.323443
100	H	0.964338	0.621142	0.300513
101	C	0.443769	0.99596	0.325031
102	N	0.466526	0.990632	0.032439
103	C	0.519568	0.992316	0.039155
104	C	0.553171	0.999832	0.002204
105	N	0.530433	0.005034	0.294842
106	C	0.477253	0.003273	0.287489
107	H	0.534408	0.988592	0.070633
108	N	0.459882	0.007818	0.245023
109	H	0.42261	0.004924	0.237484
110	H	0.48494	0.012086	0.220659
111	N	0.608768	0.003137	0.005149
112	H	0.61835	0.033407	0.026578
113	N	0.387967	0.993833	0.324099
114	H	0.3758	0.966871	0.300611
115	C	0.918448	0.850507	0.33154
116	C	0.875159	0.883739	0.333765
117	C	0.893549	0.935904	0.335764
118	N	0.94711	0.932336	0.335034
119	C	0.964296	0.881569	0.332544
120	C	0.016961	0.861649	0.330761
121	C	0.063423	0.89336	0.330715
122	N	0.066683	0.946737	0.332216
123	C	0.117416	0.963714	0.330886
124	C	0.148777	0.918239	0.328501
125	C	0.115518	0.874867	0.328763
126	C	0.135972	0.016786	0.331601
127	C	0.103056	0.062403	0.333979
128	N	0.049488	0.065937	0.334078
129	C	0.032257	0.116647	0.337086
130	C	0.078029	0.147737	0.338997
131	C	0.121359	0.114534	0.337116
132	C	0.979595	0.136558	0.338374
133	C	0.933105	0.104967	0.338005
134	N	0.929917	0.051591	0.336932
135	C	0.879183	0.034658	0.338048
136	C	0.847757	0.080136	0.339713
137	C	0.88102	0.123518	0.339573
138	C	0.860713	0.981578	0.337835
139	C	0.805077	0.97366	0.341205
140	C	0.781263	0.968122	0.383497
141	C	0.726217	0.960921	0.38722
142	C	0.693834	0.959365	0.348825
143	C	0.717917	0.964918	0.639886
144	C	0.773026	0.971865	0.636033
145	C	0.972767	0.19229	0.342138
146	C	0.967866	0.215966	0.384542
147	C	0.961145	0.271045	0.388472
148	C	0.959415	0.30359	0.35018
149	C	0.96441	0.279648	0.641138
150	C	0.970882	0.22452	0.637082
151	C	0.191688	0.024831	0.328671
152	C	0.214847	0.039154	0.620913
153	C	0.269879	0.0467	0.617556
154	C	0.302989	0.03967	0.32173
155	C	0.279635	0.025274	0.362796
156	C	0.224515	0.018185	0.366349
157	C	0.023804	0.80582	0.327263
158	C	0.035434	0.782569	0.618945
159	C	0.019056	0.773008	0.365157
160	C	0.025564	0.717856	0.36133
161	C	0.037641	0.694463	0.319767
162	C	0.042581	0.727521	0.615325
163	H	0.05076	0.711701	0.58472
164	H	0.038892	0.805571	0.591014
165	H	0.021612	0.694808	0.389171
166	H	0.010539	0.789006	0.395656
167	H	0.916057	0.810181	0.329369
168	H	0.83666	0.871195	0.333346
169	H	0.970298	0.962427	0.336596
170	H	0.02633	0.035942	0.331267
171	H	0.127945	0.83639	0.327304
172	H	0.189161	0.916227	0.326901
173	H	0.191839	0.043944	0.593122
174	H	0.285659	0.056587	0.587294
175	H	0.208571	0.007691	0.396431
176	H	0.302726	0.019753	0.39042
177	H	0.15983	0.127093	0.338355
178	H	0.080298	0.188037	0.341661
179	H	0.807346	0.082084	0.340962
180	H	0.868659	0.16203	0.340882
181	H	0.969273	0.193306	0.412797
182	H	0.95805	0.287249	0.41959
183	H	0.974413	0.208128	0.60604
184	H	0.963407	0.302312	0.612894
185	H	0.789519	0.975965	0.605078
186	H	0.695354	0.964134	0.611578
187	H	0.709887	0.957571	0.418278
188	H	0.803767	0.969588	0.411841
189	C	0.953563	0.361959	0.353954
190	H	0.944369	0.373518	0.388232
191	H	0.920171	0.374212	0.666458
192	C	0.635442	0.953439	0.352452
193	H	0.623869	0.943371	0.386557
194	H	0.623101	0.920603	0.66436
195	C	0.04376	0.636119	0.316053
196	H	0.072399	0.623123	0.341125
197	H	0.059861	0.625246	0.616844
198	C	0.361362	0.0458	0.318161
199	H	0.374469	0.073374	0.344033
200	H	0.3723	0.063146	0.619415
201	C	0.994486	0.553561	0.658019
202	N	0.990332	0.531162	0.365666
203	C	0.992475	0.478201	0.372703
204	C	0.999254	0.4443	0.335853
205	N	0.003266	0.466675	0.628253
206	C	0.000999	0.519763	0.620574
207	H	0.989598	0.463633	0.404338
208	N	0.004304	0.536735	0.577913
209	H	0.000749	0.573885	0.570163
210	H	0.007937	0.511457	0.553645
211	N	0.002861	0.388757	0.339091
212	H	0.033629	0.379486	0.360098
213	N	0.992114	0.609339	0.656777
214	H	0.964338	0.621142	0.633845
215	C	0.443769	0.99596	0.658366
216	N	0.466526	0.990632	0.365773
217	C	0.519568	0.992316	0.372487
218	C	0.553171	0.999832	0.335537
219	N	0.530433	0.005034	0.628173
220	C	0.477253	0.003273	0.620823
221	H	0.534408	0.988592	0.403968
222	N	0.459882	0.007818	0.578355
223	H	0.42261	0.004924	0.570819
224	H	0.48494	0.012086	0.553991
225	N	0.608768	0.003137	0.338481
226	H	0.61835	0.033407	0.359911
227	N	0.387967	0.993833	0.657433
228	H	0.3758	0.966871	0.633945
229	C	0.918448	0.850507	0.664873
230	C	0.875159	0.883739	0.667098
231	C	0.893549	0.935904	0.669096
232	N	0.94711	0.932336	0.668367
233	C	0.964296	0.881569	0.665879
234	C	0.016961	0.861649	0.664094
235	C	0.063423	0.89336	0.664047
236	N	0.066683	0.946737	0.665549
237	C	0.117416	0.963714	0.66422
238	C	0.148777	0.918239	0.661833
239	C	0.115518	0.874867	0.662096
240	C	0.135972	0.016786	0.664933
241	C	0.103056	0.062403	0.667311
242	N	0.049488	0.065937	0.667411
243	C	0.032257	0.116647	0.670418
244	C	0.078029	0.147737	0.67233
245	C	0.121359	0.114534	0.670448
246	C	0.979595	0.136558	0.671707
247	C	0.933105	0.104967	0.671337
248	N	0.929917	0.051591	0.670268
249	C	0.879183	0.034658	0.671381
250	C	0.847757	0.080136	0.673046
251	C	0.88102	0.123518	0.672906
252	C	0.860713	0.981578	0.671171
253	C	0.805077	0.97366	0.674538
254	C	0.781263	0.968122	0.716829
255	C	0.726217	0.960921	0.720556
256	C	0.693834	0.959365	0.682157
257	C	0.717917	0.964918	0.973218
258	C	0.773026	0.971865	0.969365
259	C	0.972767	0.19229	0.67547
260	C	0.967866	0.215966	0.717875
261	C	0.961145	0.271045	0.721805
262	C	0.959415	0.30359	0.683513
263	C	0.96441	0.279648	0.974471
264	C	0.970882	0.22452	0.970414
265	C	0.191688	0.024831	0.662006
266	C	0.214847	0.039154	0.954246
267	C	0.269879	0.0467	0.950889
268	C	0.302989	0.03967	0.655062
269	C	0.279635	0.025274	0.696128
270	C	0.224515	0.018185	0.699681
271	C	0.023804	0.80582	0.660597
272	C	0.035434	0.782569	0.952281
273	C	0.019056	0.773008	0.698489
274	C	0.025564	0.717856	0.694666
275	C	0.037641	0.694463	0.653101
276	C	0.042581	0.727521	0.948657
277	H	0.05076	0.711701	0.918055
278	H	0.038892	0.805571	0.924346
279	H	0.021612	0.694808	0.722504
280	H	0.010539	0.789006	0.728988
281	H	0.916057	0.810181	0.662702
282	H	0.83666	0.871195	0.666678
283	H	0.970298	0.962427	0.669929
284	H	0.02633	0.035942	0.6646
285	H	0.127945	0.83639	0.660637
286	H	0.189161	0.916227	0.660234
287	H	0.191839	0.043944	0.926454
288	H	0.285659	0.056587	0.920626
289	H	0.208571	0.007691	0.729764
290	H	0.302726	0.019753	0.723753
291	H	0.15983	0.127093	0.671687
292	H	0.080298	0.188037	0.674994
293	H	0.807346	0.082084	0.674295
294	H	0.868659	0.16203	0.674218
295	H	0.969273	0.193306	0.746129
296	H	0.95805	0.287249	0.752923
297	H	0.974413	0.208128	0.939373
298	H	0.963407	0.302312	0.946226
299	H	0.789519	0.975965	0.93841
300	H	0.695354	0.964134	0.944911
301	H	0.709887	0.957571	0.751611
302	H	0.803767	0.969588	0.745173
303	C	0.953563	0.361959	0.687286
304	H	0.944369	0.373518	0.721565
305	H	0.920171	0.374212	0.999793
306	C	0.635442	0.953439	0.685784
307	H	0.623869	0.943371	0.71989
308	H	0.623101	0.920603	0.997696
309	C	0.04376	0.636119	0.649384
310	H	0.072399	0.623123	0.674461
311	H	0.059861	0.625246	0.950176
312	C	0.361362	0.0458	0.651495
313	H	0.374469	0.073374	0.677368
314	H	0.3723	0.063146	0.952747
315	C	0.994486	0.553561	0.991352
316	N	0.990332	0.531162	0.698999
317	C	0.992475	0.478201	0.706039
318	C	0.999254	0.4443	0.669186
319	N	0.003266	0.466675	0.961586
320	C	0.000999	0.519763	0.953909
321	H	0.989598	0.463633	0.73767
322	N	0.004304	0.536735	0.911245
323	H	0.000749	0.573885	0.903499
324	H	0.007937	0.511457	0.886977
325	N	0.002861	0.388757	0.672423
326	H	0.033629	0.379486	0.69343
327	N	0.992114	0.609339	0.99011
328	H	0.964338	0.621142	0.967181
329	C	0.443769	0.99596	0.991698
330	N	0.466526	0.990632	0.699105
331	C	0.519568	0.992316	0.705822
332	C	0.553171	0.999832	0.66887
333	N	0.530433	0.005034	0.961509
334	C	0.477253	0.003273	0.954156
335	H	0.534408	0.988592	0.7373
336	N	0.459882	0.007818	0.911688
337	H	0.42261	0.004924	0.904151
338	H	0.48494	0.012086	0.887327
339	N	0.608768	0.003137	0.671817
340	H	0.61835	0.033407	0.693244
341	N	0.387967	0.993833	0.990766
342	H	0.3758	0.966871	0.967277
