data_C180H138N36O6_2018-02-15_10:34:42
#******************************************
#
# CIF file created by Zeo++
# Zeo++ is an open source package to
# analyze microporous materials
#
#*******************************************

_cell_length_a		25.2207   
_cell_length_b		25.2223   
_cell_length_c		30.0102   
_cell_angle_alpha		90   
_cell_angle_beta		90   
_cell_angle_gamma		90.0377   

_symmetry_space_group_name_H-M		'P1'
_symmetry_Int_Tables_number		1
_symmetry_cell_setting		Monoclinic

loop_
_symmetry_equiv_pos_as_xyz
'+x,+y,+z'

loop_
_atom_site_label
_atom_site_type_symbol
_atom_site_fract_x
_atom_site_fract_y
_atom_site_fract_z
1	C	0.920444	0.851133	0.998358
2	C	0.876585	0.883715	0.000413
3	C	0.894153	0.936176	0.003053
4	N	0.947825	0.933413	0.002853
5	C	0	0	0
6	C	0.018871	0.863772	0.998328
7	C	0.064885	0.89622	0.998344
8	N	0.067313	0.949692	0.999834
9	C	0.117823	0.967474	0.998494
10	C	0.149916	0.92245	0.996085
11	C	0.11731	0.878525	0.996375
12	C	0.135567	0.020883	0.999291
13	C	0.1019	0.066011	0.00171
14	N	0.048228	0.068744	0.001549
15	C	0.030194	0.119232	0.004575
16	C	0.07554	0.150999	0.006917
17	C	0.119418	0.118431	0.005162
18	C	0.977174	0.138399	0.005584
19	C	0.931143	0.106029	0.005329
20	N	0.928761	0.052542	0.00448
21	C	0.878239	0.034791	0.005389
22	C	0.846096	0.079844	0.006845
23	C	0.878714	0.123781	0.006584
24	C	0.860543	0.981371	0.004993
25	C	0.804877	0.972604	0.007398
26	C	0.780486	0.963521	0.049057
27	C	0.72534	0.956008	0.051852
28	C	0.693391	0.957737	0.013165
29	C	0.718051	0.966725	0.304854
30	C	0.773265	0.973913	0.301911
31	C	0.969535	0.194189	0.008483
32	C	0.96126	0.218474	0.050304
33	C	0.954572	0.273696	0.053355
34	C	0.956361	0.305827	0.014773
35	C	0.964695	0.281292	0.306322
36	C	0.97105	0.226016	0.303127
37	C	0.191218	0.029786	0.996425
38	C	0.214247	0.044365	0.288644
39	C	0.269278	0.052234	0.285234
40	C	0.302509	0.045318	0.989384
41	C	0.279292	0.030749	0.030487
42	C	0.224168	0.023331	0.034091
43	C	0.026596	0.808008	0.994759
44	C	0.038613	0.784961	0.286404
45	C	0.02224	0.775037	0.032627
46	C	0.02948	0.719931	0.028741
47	C	0.041928	0.696749	0.987141
48	C	0.046481	0.729966	0.282718
49	H	0.054788	0.714277	0.252067
50	H	0.041741	0.808067	0.258476
51	H	0.025688	0.696749	0.056545
52	H	0.013412	0.790868	0.063143
53	H	0.918693	0.810775	0.995698
54	H	0.838251	0.870592	0.999367
55	H	0.970565	0.96385	0.005029
56	H	0.025526	0.038413	0.998261
57	H	0.130348	0.840214	0.994889
58	H	0.190365	0.921059	0.994469
59	H	0.19117	0.048915	0.260838
60	H	0.284988	0.062109	0.254917
61	H	0.208335	0.012565	0.064168
62	H	0.302493	0.02519	0.058066
63	H	0.157723	0.131561	0.006689
64	H	0.077215	0.19134	0.009838
65	H	0.805615	0.081204	0.007849
66	H	0.865726	0.162139	0.007568
67	H	0.960353	0.196168	0.078798
68	H	0.949115	0.290338	0.084101
69	H	0.977233	0.209242	0.272505
70	H	0.966375	0.30364	0.277896
71	H	0.790128	0.980685	0.271411
72	H	0.695821	0.968438	0.276365
73	H	0.708592	0.950204	0.082515
74	H	0.802626	0.962784	0.077648
75	C	0.951031	0.364389	0.017725
76	H	0.938755	0.376426	0.051218
77	H	0.919898	0.376944	0.32797
78	C	0.634836	0.952016	0.015951
79	H	0.62281	0.938999	0.049253
80	H	0.622402	0.921305	0.325744
81	C	0.04834	0.638392	0.983273
82	H	0.076677	0.625217	0.008546
83	H	0.064842	0.627862	0.284102
84	C	0.360941	0.05125	0.985629
85	H	0.374462	0.078494	0.011625
86	H	0.371688	0.068796	0.286879
87	C	0.998432	0.555636	0.324822
88	N	0.989527	0.533183	0.031942
89	C	0.989952	0.480107	0.038946
90	C	0.999751	0.44607	0.002596
91	N	0.008675	0.468407	0.295479
92	C	0.008333	0.521626	0.288055
93	H	0.9835	0.465533	0.070224
94	C	0.017484	0.539876	0.245378
95	C	0.973916	0.555271	0.216671
96	H	0.936914	0.560528	0.235092
97	H	0.967429	0.52519	0.19105
98	H	0.983587	0.592778	0.200452
99	O	0.058941	0.526697	0.227336
100	N	0.002025	0.390396	0.006057
101	H	0.030624	0.380635	0.029019
102	N	0.996549	0.611543	0.323305
103	H	0.969623	0.623211	0.299605
104	C	0.443156	0.000295	0.32531
105	N	0.466155	0.990696	0.0321
106	C	0.519349	0.9907	0.038575
107	C	0.552944	0.000864	0.001995
108	N	0.530092	0.01047	0.295197
109	C	0.476751	0.010503	0.288319
110	H	0.534321	0.983797	0.069653
111	C	0.458026	0.020243	0.245877
112	C	0.441468	0.977414	0.216878
113	H	0.436773	0.94001	0.234832
114	H	0.470619	0.971498	0.190426
115	H	0.403434	0.987516	0.201764
116	O	0.470694	0.062263	0.228475
117	N	0.608669	0.003111	0.004986
118	H	0.618696	0.031418	0.028133
119	N	0.387272	0.998946	0.324329
120	H	0.374838	0.972894	0.300251
121	C	0.920444	0.851133	0.331692
122	C	0.876585	0.883715	0.333747
123	C	0.894153	0.936176	0.336386
124	N	0.947825	0.933413	0.336186
125	C	0.965841	0.882902	0.333337
126	C	0.018871	0.863772	0.331661
127	C	0.064885	0.89622	0.331678
128	N	0.067313	0.949692	0.333167
129	C	0.117823	0.967474	0.331829
130	C	0.149916	0.92245	0.329418
131	C	0.11731	0.878525	0.329709
132	C	0.135567	0.020883	0.332623
133	C	0.1019	0.066011	0.335043
134	N	0.048228	0.068744	0.334883
135	C	0.030194	0.119232	0.337909
136	C	0.07554	0.150999	0.340251
137	C	0.119418	0.118431	0.338495
138	C	0.977174	0.138399	0.338918
139	C	0.931143	0.106029	0.338662
140	N	0.928761	0.052542	0.337812
141	C	0.878239	0.034791	0.338722
142	C	0.846096	0.079844	0.340178
143	C	0.878714	0.123781	0.339918
144	C	0.860543	0.981371	0.338325
145	C	0.804877	0.972604	0.340731
146	C	0.780486	0.963521	0.38239
147	C	0.72534	0.956008	0.385186
148	C	0.693391	0.957737	0.346499
149	C	0.718051	0.966725	0.638187
150	C	0.773265	0.973913	0.635244
151	C	0.969535	0.194189	0.341817
152	C	0.96126	0.218474	0.383636
153	C	0.954572	0.273696	0.386689
154	C	0.956361	0.305827	0.348105
155	C	0.964695	0.281292	0.639656
156	C	0.97105	0.226016	0.636461
157	C	0.191218	0.029786	0.329757
158	C	0.214247	0.044365	0.621979
159	C	0.269278	0.052234	0.618567
160	C	0.302509	0.045318	0.322716
161	C	0.279292	0.030749	0.36382
162	C	0.224168	0.023331	0.367425
163	C	0.026596	0.808008	0.328091
164	C	0.038613	0.784961	0.619736
165	C	0.02224	0.775037	0.365959
166	C	0.02948	0.719931	0.362074
167	C	0.041928	0.696749	0.320474
168	C	0.046481	0.729966	0.616051
169	H	0.054788	0.714277	0.585401
170	H	0.041741	0.808067	0.591809
171	H	0.025688	0.696749	0.389878
172	H	0.013412	0.790868	0.396475
173	H	0.918693	0.810775	0.329032
174	H	0.838251	0.870592	0.332702
175	H	0.970565	0.96385	0.338362
176	H	0.025526	0.038413	0.331595
177	H	0.130348	0.840214	0.328221
178	H	0.190365	0.921059	0.327804
179	H	0.19117	0.048915	0.594172
180	H	0.284988	0.062109	0.58825
181	H	0.208335	0.012565	0.397502
182	H	0.302493	0.02519	0.3914
183	H	0.157723	0.131561	0.340021
184	H	0.077215	0.19134	0.34317
185	H	0.805615	0.081204	0.341181
186	H	0.865726	0.162139	0.340901
187	H	0.960353	0.196168	0.41213
188	H	0.949115	0.290338	0.417435
189	H	0.977233	0.209242	0.605838
190	H	0.966375	0.30364	0.611229
191	H	0.790128	0.980685	0.604745
192	H	0.695821	0.968438	0.6097
193	H	0.708592	0.950204	0.415849
194	H	0.802626	0.962784	0.41098
195	C	0.951031	0.364389	0.351057
196	H	0.938755	0.376426	0.384553
197	H	0.919898	0.376944	0.661302
198	C	0.634836	0.952016	0.349285
199	H	0.62281	0.938999	0.382587
200	H	0.622402	0.921305	0.659076
201	C	0.04834	0.638392	0.316605
202	H	0.076677	0.625217	0.341881
203	H	0.064842	0.627862	0.617437
204	C	0.360941	0.05125	0.318962
205	H	0.374462	0.078494	0.34496
206	H	0.371688	0.068796	0.620213
207	C	0.998432	0.555636	0.658156
208	N	0.989527	0.533183	0.365276
209	C	0.989952	0.480107	0.37228
210	C	0.999751	0.44607	0.335929
211	N	0.008675	0.468407	0.628813
212	C	0.008333	0.521626	0.621389
213	H	0.9835	0.465533	0.403556
214	C	0.017484	0.539876	0.57871
215	C	0.973916	0.555271	0.550003
216	H	0.936914	0.560528	0.568427
217	H	0.967429	0.52519	0.524385
218	H	0.983587	0.592778	0.533785
219	O	0.058941	0.526697	0.56067
220	N	0.002025	0.390396	0.339391
221	H	0.030624	0.380635	0.362354
222	N	0.996549	0.611543	0.656637
223	H	0.969623	0.623211	0.632938
224	C	0.443156	0.000295	0.658643
225	N	0.466155	0.990696	0.365433
226	C	0.519349	0.9907	0.371907
227	C	0.552944	0.000864	0.335329
228	N	0.530092	0.01047	0.62853
229	C	0.476751	0.010503	0.621652
230	H	0.534321	0.983797	0.402986
231	C	0.458026	0.020243	0.57921
232	C	0.441468	0.977414	0.55021
233	H	0.436773	0.94001	0.568164
234	H	0.470619	0.971498	0.523759
235	H	0.403434	0.987516	0.535098
236	O	0.470694	0.062263	0.561809
237	N	0.608669	0.003111	0.338318
238	H	0.618696	0.031418	0.361467
239	N	0.387272	0.998946	0.657663
240	H	0.374838	0.972894	0.633585
241	C	0.920444	0.851133	0.665024
242	C	0.876585	0.883715	0.66708
243	C	0.894153	0.936176	0.669719
244	N	0.947825	0.933413	0.669519
245	C	0.965841	0.882902	0.66667
246	C	0.018871	0.863772	0.664994
247	C	0.064885	0.89622	0.665011
248	N	0.067313	0.949692	0.6665
249	C	0.117823	0.967474	0.665164
250	C	0.149916	0.92245	0.662752
251	C	0.11731	0.878525	0.663041
252	C	0.135567	0.020883	0.665957
253	C	0.1019	0.066011	0.668376
254	N	0.048228	0.068744	0.668216
255	C	0.030194	0.119232	0.671242
256	C	0.07554	0.150999	0.673585
257	C	0.119418	0.118431	0.671828
258	C	0.977174	0.138399	0.672252
259	C	0.931143	0.106029	0.671995
260	N	0.928761	0.052542	0.671145
261	C	0.878239	0.034791	0.672055
262	C	0.846096	0.079844	0.673511
263	C	0.878714	0.123781	0.673251
264	C	0.860543	0.981371	0.671659
265	C	0.804877	0.972604	0.674064
266	C	0.780486	0.963521	0.715724
267	C	0.72534	0.956008	0.718519
268	C	0.693391	0.957737	0.679832
269	C	0.718051	0.966725	0.97152
270	C	0.773265	0.973913	0.968578
271	C	0.969535	0.194189	0.675151
272	C	0.96126	0.218474	0.71697
273	C	0.954572	0.273696	0.720022
274	C	0.956361	0.305827	0.681439
275	C	0.964695	0.281292	0.97299
276	C	0.97105	0.226016	0.969794
277	C	0.191218	0.029786	0.663091
278	C	0.214247	0.044365	0.955312
279	C	0.269278	0.052234	0.9519
280	C	0.302509	0.045318	0.656051
281	C	0.279292	0.030749	0.697153
282	C	0.224168	0.023331	0.700759
283	C	0.026596	0.808008	0.661425
284	C	0.038613	0.784961	0.95307
285	C	0.02224	0.775037	0.699292
286	C	0.02948	0.719931	0.695407
287	C	0.041928	0.696749	0.653808
288	C	0.046481	0.729966	0.949384
289	H	0.054788	0.714277	0.918735
290	H	0.041741	0.808067	0.925142
291	H	0.025688	0.696749	0.723211
292	H	0.013412	0.790868	0.729809
293	H	0.918693	0.810775	0.662365
294	H	0.838251	0.870592	0.666034
295	H	0.970565	0.96385	0.671695
296	H	0.025526	0.038413	0.664928
297	H	0.130348	0.840214	0.661555
298	H	0.190365	0.921059	0.661139
299	H	0.19117	0.048915	0.927505
300	H	0.284988	0.062109	0.921584
301	H	0.208335	0.012565	0.730835
302	H	0.302493	0.02519	0.724734
303	H	0.157723	0.131561	0.673355
304	H	0.077215	0.19134	0.676504
305	H	0.805615	0.081204	0.674514
306	H	0.865726	0.162139	0.674234
307	H	0.960353	0.196168	0.745463
308	H	0.949115	0.290338	0.750768
309	H	0.977233	0.209242	0.939171
310	H	0.966375	0.30364	0.944563
311	H	0.790128	0.980685	0.938078
312	H	0.695821	0.968438	0.943033
313	H	0.708592	0.950204	0.749182
314	H	0.802626	0.962784	0.744314
315	C	0.951031	0.364389	0.684391
316	H	0.938755	0.376426	0.717886
317	H	0.919898	0.376944	0.994636
318	C	0.634836	0.952016	0.682618
319	H	0.62281	0.938999	0.71592
320	H	0.622402	0.921305	0.99241
321	C	0.04834	0.638392	0.649939
322	H	0.076677	0.625217	0.675214
323	H	0.064842	0.627862	0.950767
324	C	0.360941	0.05125	0.652295
325	H	0.374462	0.078494	0.678293
326	H	0.371688	0.068796	0.953546
327	C	0.998432	0.555636	0.99149
328	N	0.989527	0.533183	0.698609
329	C	0.989952	0.480107	0.705614
330	C	0.999751	0.44607	0.669263
331	N	0.008675	0.468407	0.962147
332	C	0.008333	0.521626	0.954722
333	H	0.9835	0.465533	0.73689
334	C	0.017484	0.539876	0.912044
335	C	0.973916	0.555271	0.883337
336	H	0.936914	0.560528	0.90176
337	H	0.967429	0.52519	0.857715
338	H	0.983587	0.592778	0.867119
339	O	0.058941	0.526697	0.894003
340	N	0.002025	0.390396	0.672725
341	H	0.030624	0.380635	0.695684
342	N	0.996549	0.611543	0.98997
343	H	0.969623	0.623211	0.966272
344	C	0.443156	0.000295	0.991976
345	N	0.466155	0.990696	0.698766
346	C	0.519349	0.9907	0.70524
347	C	0.552944	0.000864	0.668663
348	N	0.530092	0.01047	0.961863
349	C	0.476751	0.010503	0.954986
350	H	0.534321	0.983797	0.73632
351	C	0.458026	0.020243	0.912543
352	C	0.441468	0.977414	0.883543
353	H	0.436773	0.94001	0.901497
354	H	0.470619	0.971498	0.857092
355	H	0.403434	0.987516	0.868432
356	O	0.470694	0.062263	0.895143
357	N	0.608669	0.003111	0.671652
358	H	0.618696	0.031418	0.694801
359	N	0.387272	0.998946	0.990997
360	H	0.374838	0.972894	0.966918
