data_C192H138N36O6_2018-02-15_10:34:41
#******************************************
#
# CIF file created by Zeo++
# Zeo++ is an open source package to
# analyze microporous materials
#
#*******************************************

_cell_length_a		25.3463   
_cell_length_b		25.3479   
_cell_length_c		30.015   
_cell_angle_alpha		90   
_cell_angle_beta		90   
_cell_angle_gamma		90.0375   

_symmetry_space_group_name_H-M		'P1'
_symmetry_Int_Tables_number		1
_symmetry_cell_setting		Monoclinic

loop_
_symmetry_equiv_pos_as_xyz
'+x,+y,+z'

loop_
_atom_site_label
_atom_site_type_symbol
_atom_site_fract_x
_atom_site_fract_y
_atom_site_fract_z
1	C	0.917519	0.852192	0.998328
2	C	0.874781	0.885749	0.000896
3	C	0.893674	0.937493	0.003005
4	N	0.946973	0.933358	0.001993
5	C	0.963522	0.88262	0.99923
6	C	0.015742	0.862212	0.997171
7	C	0.062365	0.893288	0.996975
8	N	0.066199	0.946412	0.998447
9	C	0.116908	0.962769	0.997028
10	C	0.147642	0.917144	0.994579
11	C	0.114046	0.874312	0.994909
12	C	0.135974	0.01542	0.997741
13	C	0.103712	0.061215	0.000327
14	N	0.050404	0.065317	0.000809
15	C	0.033819	0.116002	0.003983
16	C	0.079754	0.146474	0.005554
17	C	0.12253	0.112939	0.00335
18	C	0.981604	0.136393	0.005689
19	C	0.934958	0.105432	0.005582
20	N	0.931183	0.052308	0.004417
21	C	0.880478	0.035992	0.005769
22	C	0.849691	0.081624	0.007704
23	C	0.883298	0.124467	0.007495
24	C	0.86149	0.983335	0.005454
25	C	0.805998	0.976056	0.008902
26	C	0.782193	0.971172	0.051236
27	C	0.727308	0.964422	0.054979
28	C	0.695089	0.962591	0.016555
29	C	0.719171	0.967467	0.307577
30	C	0.774091	0.974075	0.303712
31	C	0.975434	0.191979	0.009459
32	C	0.97156	0.215728	0.051888
33	C	0.9652	0.270634	0.055784
34	C	0.962764	0.30292	0.017425
35	C	0.966764	0.278904	0.308361
36	C	0.972946	0.223965	0.304344
37	C	0.191548	0.022824	0.994796
38	C	0.214797	0.036769	0.287017
39	C	0.269647	0.044069	0.283764
40	C	0.302461	0.037199	0.988073
41	C	0.279042	0.023019	0.029124
42	C	0.224108	0.016176	0.032571
43	C	0.021955	0.806527	0.99374
44	C	0.033374	0.783149	0.285457
45	C	0.017083	0.774008	0.031736
46	C	0.023376	0.719041	0.028073
47	C	0.03543	0.695556	0.986577
48	C	0.040328	0.728288	0.281997
49	H	0.048486	0.712378	0.251438
50	H	0.03696	0.805943	0.257455
51	H	0.019468	0.696215	0.056007
52	H	0.008764	0.7901	0.062221
53	H	0.914687	0.812058	0.996029
54	H	0.836298	0.873673	0.00065
55	H	0.970412	0.963061	0.003605
56	H	0.026984	0.035685	0.998231
57	H	0.126009	0.835851	0.993473
58	H	0.187841	0.914702	0.99294
59	H	0.191969	0.041602	0.25917
60	H	0.285497	0.053815	0.253512
61	H	0.208086	0.005991	0.06268
62	H	0.301931	0.017636	0.056844
63	H	0.160991	0.125039	0.004315
64	H	0.082474	0.186586	0.008223
65	H	0.809474	0.084004	0.009121
66	H	0.871412	0.162957	0.008916
67	H	0.973332	0.19323	0.080181
68	H	0.962686	0.286881	0.086914
69	H	0.975642	0.20751	0.273277
70	H	0.965071	0.301345	0.280056
71	H	0.790577	0.977626	0.272718
72	H	0.696765	0.966296	0.27923
73	H	0.711008	0.961372	0.086056
74	H	0.804607	0.972703	0.079589
75	C	0.956651	0.361025	0.021089
76	H	0.948728	0.372761	0.055538
77	H	0.922508	0.372778	0.334443
78	C	0.636959	0.956465	0.020098
79	H	0.625184	0.947833	0.054419
80	H	0.625116	0.92277	0.332934
81	C	0.041713	0.637456	0.983075
82	H	0.069961	0.624658	0.008422
83	H	0.058381	0.62658	0.284123
84	C	0.36059	0.043477	0.984691
85	H	0.373454	0.070966	0.01061
86	H	0.371554	0.061001	0.286075
87	C	0.000401	0.443389	0.99928
88	C	0.001299	0.466129	0.289355
89	C	0.996581	0.52211	0.284292
90	C	0.9924	0.554542	0.322985
91	C	0.991229	0.530951	0.032115
92	C	0.995367	0.476201	0.036957
93	C	0.99597	0.541523	0.239896
94	N	0.000729	0.508183	0.204939
95	C	0.006281	0.45567	0.210576
96	H	0.995301	0.460302	0.068286
97	H	0.988427	0.553801	0.060153
98	O	0.989016	0.592691	0.22877
99	N	0.006278	0.435014	0.252226
100	H	0.009734	0.431893	0.183209
101	H	0.009842	0.396884	0.254706
102	N	0.004916	0.38805	0.004744
103	H	0.036545	0.379753	0.025014
104	N	0.990424	0.610322	0.323551
105	H	0.960867	0.62413	0.303336
106	C	0.554669	0.000919	0.99921
107	C	0.531645	0.002612	0.289411
108	C	0.47559	0.998381	0.284569
109	C	0.443381	0.993781	0.323367
110	C	0.467249	0.991797	0.032364
111	C	0.522064	0.995537	0.036988
112	C	0.455867	0.998642	0.240267
113	N	0.489016	0.003684	0.205204
114	C	0.541626	0.008677	0.210642
115	H	0.538169	0.994894	0.068238
116	H	0.444565	0.988672	0.060477
117	O	0.404531	0.992479	0.229326
118	N	0.56256	0.007901	0.252188
119	H	0.56525	0.012386	0.1832
120	H	0.600741	0.011121	0.25452
121	N	0.610072	0.005102	0.004469
122	H	0.618666	0.036355	0.025075
123	N	0.387594	0.991966	0.324157
124	H	0.373508	0.962883	0.30358
125	C	0.917519	0.852192	0.33166
126	C	0.874781	0.885749	0.33423
127	C	0.893674	0.937493	0.336339
128	N	0.946973	0.933358	0.335326
129	C	0.963522	0.88262	0.332563
130	C	0.015742	0.862212	0.330505
131	C	0.062365	0.893288	0.330309
132	N	0.066199	0.946412	0.331782
133	C	0.116908	0.962769	0.330362
134	C	0.147642	0.917144	0.327913
135	C	0.114046	0.874312	0.328242
136	C	0.135974	0.01542	0.331075
137	C	0.103712	0.061215	0.33366
138	N	0.050404	0.065317	0.334143
139	C	0.033819	0.116002	0.337315
140	C	0.079754	0.146474	0.338887
141	C	0.12253	0.112939	0.336685
142	C	0.981604	0.136393	0.339024
143	C	0.934958	0.105432	0.338914
144	N	0.931183	0.052308	0.337751
145	C	0.880478	0.035992	0.3391
146	C	0.849691	0.081624	0.341036
147	C	0.883298	0.124467	0.34083
148	C	0.86149	0.983335	0.338787
149	C	0.805998	0.976056	0.342236
150	C	0.782193	0.971172	0.384568
151	C	0.727308	0.964422	0.388313
152	C	0.695089	0.962591	0.349888
153	C	0.719171	0.967467	0.64091
154	C	0.774091	0.974075	0.637045
155	C	0.975434	0.191979	0.342792
156	C	0.97156	0.215728	0.385221
157	C	0.9652	0.270634	0.389119
158	C	0.962764	0.30292	0.350758
159	C	0.966764	0.278904	0.641696
160	C	0.972946	0.223965	0.637678
161	C	0.191548	0.022824	0.32813
162	C	0.214797	0.036769	0.62035
163	C	0.269647	0.044069	0.617098
164	C	0.302461	0.037199	0.321406
165	C	0.279042	0.023019	0.362459
166	C	0.224108	0.016176	0.365904
167	C	0.021955	0.806527	0.327072
168	C	0.033374	0.783149	0.618791
169	C	0.017083	0.774008	0.365071
170	C	0.023376	0.719041	0.361406
171	C	0.03543	0.695556	0.31991
172	C	0.040328	0.728288	0.615329
173	H	0.048486	0.712378	0.584771
174	H	0.03696	0.805943	0.590788
175	H	0.019468	0.696215	0.389339
176	H	0.008764	0.7901	0.395552
177	H	0.914687	0.812058	0.329363
178	H	0.836298	0.873673	0.333983
179	H	0.970412	0.963061	0.336938
180	H	0.026984	0.035685	0.331564
181	H	0.126009	0.835851	0.326805
182	H	0.187841	0.914702	0.326273
183	H	0.191969	0.041602	0.592504
184	H	0.285497	0.053815	0.586847
185	H	0.208086	0.005991	0.396012
186	H	0.301931	0.017636	0.390178
187	H	0.160991	0.125039	0.337648
188	H	0.082474	0.186586	0.341556
189	H	0.809474	0.084004	0.342455
190	H	0.871412	0.162957	0.342249
191	H	0.973332	0.19323	0.413513
192	H	0.962686	0.286881	0.420247
193	H	0.975642	0.20751	0.60661
194	H	0.965071	0.301345	0.61339
195	H	0.790577	0.977626	0.60605
196	H	0.696765	0.966296	0.612564
197	H	0.711008	0.961372	0.41939
198	H	0.804607	0.972703	0.412924
199	C	0.956651	0.361025	0.354423
200	H	0.948728	0.372761	0.388872
201	H	0.922508	0.372778	0.667776
202	C	0.636959	0.956465	0.35343
203	H	0.625184	0.947833	0.387753
204	H	0.625116	0.92277	0.666267
205	C	0.041713	0.637456	0.31641
206	H	0.069961	0.624658	0.341756
207	H	0.058381	0.62658	0.617458
208	C	0.36059	0.043477	0.318025
209	H	0.373454	0.070966	0.343945
210	H	0.371554	0.061001	0.619407
211	C	0.000401	0.443389	0.332613
212	C	0.001299	0.466129	0.622689
213	C	0.996581	0.52211	0.617625
214	C	0.9924	0.554542	0.656319
215	C	0.991229	0.530951	0.365447
216	C	0.995367	0.476201	0.370292
217	C	0.99597	0.541523	0.57323
218	N	0.000729	0.508183	0.538274
219	C	0.006281	0.45567	0.543908
220	H	0.995301	0.460302	0.401619
221	H	0.988427	0.553801	0.393487
222	O	0.989016	0.592691	0.562102
223	N	0.006278	0.435014	0.585561
224	H	0.009734	0.431893	0.516542
225	H	0.009842	0.396884	0.588039
226	N	0.004916	0.38805	0.338078
227	H	0.036545	0.379753	0.358348
228	N	0.990424	0.610322	0.656885
229	H	0.960867	0.62413	0.636668
230	C	0.554669	0.000919	0.332545
231	C	0.531645	0.002612	0.622745
232	C	0.47559	0.998381	0.617901
233	C	0.443381	0.993781	0.656698
234	C	0.467249	0.991797	0.365697
235	C	0.522064	0.995537	0.370322
236	C	0.455867	0.998642	0.5736
237	N	0.489016	0.003684	0.538537
238	C	0.541626	0.008677	0.543975
239	H	0.538169	0.994894	0.401573
240	H	0.444565	0.988672	0.39381
241	O	0.404531	0.992479	0.562659
242	N	0.56256	0.007901	0.585521
243	H	0.56525	0.012386	0.516535
244	H	0.600741	0.011121	0.587853
245	N	0.610072	0.005102	0.337801
246	H	0.618666	0.036355	0.358407
247	N	0.387594	0.991966	0.657491
248	H	0.373508	0.962883	0.636915
249	C	0.917519	0.852192	0.664994
250	C	0.874781	0.885749	0.667563
251	C	0.893674	0.937493	0.669672
252	N	0.946973	0.933358	0.668659
253	C	0.963522	0.88262	0.665897
254	C	0.015742	0.862212	0.663838
255	C	0.062365	0.893288	0.663642
256	N	0.066199	0.946412	0.665114
257	C	0.116908	0.962769	0.663695
258	C	0.147642	0.917144	0.661246
259	C	0.114046	0.874312	0.661576
260	C	0.135974	0.01542	0.664408
261	C	0.103712	0.061215	0.666993
262	N	0.050404	0.065317	0.667476
263	C	0.033819	0.116002	0.670648
264	C	0.079754	0.146474	0.672221
265	C	0.12253	0.112939	0.670018
266	C	0.981604	0.136393	0.672357
267	C	0.934958	0.105432	0.672247
268	N	0.931183	0.052308	0.671084
269	C	0.880478	0.035992	0.672434
270	C	0.849691	0.081624	0.67437
271	C	0.883298	0.124467	0.674163
272	C	0.86149	0.983335	0.672121
273	C	0.805998	0.976056	0.675569
274	C	0.782193	0.971172	0.717901
275	C	0.727308	0.964422	0.721646
276	C	0.695089	0.962591	0.683222
277	C	0.719171	0.967467	0.974243
278	C	0.774091	0.974075	0.970378
279	C	0.975434	0.191979	0.676125
280	C	0.97156	0.215728	0.718554
281	C	0.9652	0.270634	0.722452
282	C	0.962764	0.30292	0.684091
283	C	0.966764	0.278904	0.975029
284	C	0.972946	0.223965	0.971011
285	C	0.191548	0.022824	0.661463
286	C	0.214797	0.036769	0.953683
287	C	0.269647	0.044069	0.950431
288	C	0.302461	0.037199	0.654739
289	C	0.279042	0.023019	0.695792
290	C	0.224108	0.016176	0.699237
291	C	0.021955	0.806527	0.660406
292	C	0.033374	0.783149	0.952124
293	C	0.017083	0.774008	0.698401
294	C	0.023376	0.719041	0.694739
295	C	0.03543	0.695556	0.653243
296	C	0.040328	0.728288	0.948662
297	H	0.048486	0.712378	0.918104
298	H	0.03696	0.805943	0.924121
299	H	0.019468	0.696215	0.722672
300	H	0.008764	0.7901	0.728886
301	H	0.914687	0.812058	0.662695
302	H	0.836298	0.873673	0.667316
303	H	0.970412	0.963061	0.670272
304	H	0.026984	0.035685	0.664898
305	H	0.126009	0.835851	0.66014
306	H	0.187841	0.914702	0.659607
307	H	0.191969	0.041602	0.925837
308	H	0.285497	0.053815	0.92018
309	H	0.208086	0.005991	0.729345
310	H	0.301931	0.017636	0.723512
311	H	0.160991	0.125039	0.670981
312	H	0.082474	0.186586	0.674889
313	H	0.809474	0.084004	0.675789
314	H	0.871412	0.162957	0.675582
315	H	0.973332	0.19323	0.746847
316	H	0.962686	0.286881	0.75358
317	H	0.975642	0.20751	0.939943
318	H	0.965071	0.301345	0.946723
319	H	0.790577	0.977626	0.939384
320	H	0.696765	0.966296	0.945897
321	H	0.711008	0.961372	0.752724
322	H	0.804607	0.972703	0.746257
323	C	0.956651	0.361025	0.687756
324	H	0.948728	0.372761	0.722206
325	H	0.922508	0.372778	0.001109
326	C	0.636959	0.956465	0.686763
327	H	0.625184	0.947833	0.721086
328	H	0.625116	0.92277	0.9996
329	C	0.041713	0.637456	0.649742
330	H	0.069961	0.624658	0.675089
331	H	0.058381	0.62658	0.950791
332	C	0.36059	0.043477	0.651358
333	H	0.373454	0.070966	0.677278
334	H	0.371554	0.061001	0.95274
335	C	0.000401	0.443389	0.665947
336	C	0.001299	0.466129	0.956022
337	C	0.996581	0.52211	0.950958
338	C	0.9924	0.554542	0.989652
339	C	0.991229	0.530951	0.698781
340	C	0.995367	0.476201	0.703625
341	C	0.99597	0.541523	0.906563
342	N	0.000729	0.508183	0.871608
343	C	0.006281	0.45567	0.877241
344	H	0.995301	0.460302	0.734953
345	H	0.988427	0.553801	0.72682
346	O	0.989016	0.592691	0.895436
347	N	0.006278	0.435014	0.918894
348	H	0.009734	0.431893	0.849875
349	H	0.009842	0.396884	0.921373
350	N	0.004916	0.38805	0.671411
351	H	0.036545	0.379753	0.691681
352	N	0.990424	0.610322	0.990218
353	H	0.960867	0.62413	0.970002
354	C	0.554669	0.000919	0.665877
355	C	0.531645	0.002612	0.956079
356	C	0.47559	0.998381	0.951234
357	C	0.443381	0.993781	0.990032
358	C	0.467249	0.991797	0.699031
359	C	0.522064	0.995537	0.703655
360	C	0.455867	0.998642	0.906933
361	N	0.489016	0.003684	0.871871
362	C	0.541626	0.008677	0.877308
363	H	0.538169	0.994894	0.734906
364	H	0.444565	0.988672	0.727143
365	O	0.404531	0.992479	0.895992
366	N	0.56256	0.007901	0.918854
367	H	0.56525	0.012386	0.849868
368	H	0.600741	0.011121	0.921186
369	N	0.610072	0.005102	0.671134
370	H	0.618666	0.036355	0.691741
371	N	0.387594	0.991966	0.990825
372	H	0.373508	0.962883	0.970248
