data_C192H162N24_2018-02-15_10:34:41
#******************************************
#
# CIF file created by Zeo++
# Zeo++ is an open source package to
# analyze microporous materials
#
#*******************************************

_cell_length_a		25.3551   
_cell_length_b		25.3568   
_cell_length_c		30.0224   
_cell_angle_alpha		90   
_cell_angle_beta		90   
_cell_angle_gamma		90.0375   

_symmetry_space_group_name_H-M		'P1'
_symmetry_Int_Tables_number		1
_symmetry_cell_setting		Monoclinic

loop_
_symmetry_equiv_pos_as_xyz
'+x,+y,+z'

loop_
_atom_site_label
_atom_site_type_symbol
_atom_site_fract_x
_atom_site_fract_y
_atom_site_fract_z
1	C	0.917235	0.851585	0.004154
2	C	0.874359	0.88498	0.002188
3	C	0.892992	0.936753	0.999188
4	N	0.946296	0.932805	0.999295
5	C	0.963049	0.882196	0.002444
6	C	0.015309	0.861984	0.004124
7	C	0.061847	0.893065	0.003981
8	N	0.065457	0.946175	0.002736
9	C	0.116085	0.962632	0.004231
10	C	0.147001	0.917117	0.006253
11	C	0.11354	0.87419	0.006005
12	C	0.134895	0.015329	0.004054
13	C	0.102588	0.061058	0.001726
14	N	0.0493	0.065015	0.000719
15	C	0.032593	0.11571	0.998469
16	C	0.078479	0.146289	0.997659
17	C	0.121311	0.112858	0.999915
18	C	0.980316	0.135965	0.99687
19	C	0.933804	0.104766	0.996603
20	N	0.930149	0.051633	0.997649
21	C	0.879498	0.035148	0.996483
22	C	0.848614	0.080689	0.994568
23	C	0.882072	0.123603	0.995021
24	C	0.860595	0.982461	0.99708
25	C	0.805	0.974948	0.995051
26	C	0.773373	0.981664	0.033359
27	C	0.718402	0.974763	0.030886
28	C	0.694007	0.960309	0.990328
29	C	0.725913	0.953317	0.285491
30	C	0.780794	0.960778	0.287742
31	C	0.973908	0.191669	0.994412
32	C	0.979123	0.223243	0.032925
33	C	0.972648	0.278244	0.030286
34	C	0.960007	0.302712	0.989339
35	C	0.954781	0.27091	0.28424
36	C	0.961938	0.216014	0.286661
37	C	0.190278	0.022778	0.008095
38	C	0.222737	0.025291	0.303277
39	C	0.27756	0.032	0.307794
40	C	0.300966	0.036439	0.017062
41	C	0.268184	0.034062	0.055108
42	C	0.213405	0.027236	0.050713
43	C	0.021647	0.806504	0.008437
44	C	0.024517	0.77398	0.303682
45	C	0.025299	0.783422	0.051126
46	C	0.031813	0.728628	0.055641
47	C	0.034629	0.695796	0.017652
48	C	0.030849	0.719139	0.30832
49	H	0.032731	0.696262	0.280284
50	H	0.021962	0.78996	0.272443
51	H	0.034105	0.712869	0.086948
52	H	0.02323	0.806319	0.079162
53	H	0.914653	0.811481	0.00682
54	H	0.835964	0.872766	0.003406
55	H	0.969605	0.962517	0.996853
56	H	0.025969	0.035254	0.002364
57	H	0.12553	0.835755	0.007538
58	H	0.187206	0.914862	0.007808
59	H	0.206738	0.022012	0.272093
60	H	0.30041	0.03348	0.279722
61	H	0.190579	0.025308	0.078802
62	H	0.283987	0.036782	0.086377
63	H	0.159741	0.125061	0.99979
64	H	0.081171	0.186441	0.995734
65	H	0.808407	0.083029	0.993282
66	H	0.869977	0.162024	0.994025
67	H	0.987809	0.206432	0.063046
68	H	0.976716	0.300311	0.058601
69	H	0.958094	0.193913	0.258303
70	H	0.946225	0.287541	0.254047
71	H	0.802936	0.955876	0.259526
72	H	0.709346	0.943442	0.255556
73	H	0.696272	0.980102	0.05901
74	H	0.790099	0.991973	0.063152
75	C	0.953566	0.360852	0.986821
76	H	0.927082	0.37334	0.013588
77	H	0.93476	0.372046	0.288864
78	C	0.635829	0.953959	0.987903
79	H	0.623298	0.927947	0.014991
80	H	0.624497	0.934714	0.290166
81	C	0.040747	0.637773	0.022019
82	H	0.048192	0.62664	0.056677
83	H	0.075172	0.625736	0.335866
84	C	0.359017	0.042548	0.021331
85	H	0.370198	0.050432	0.055913
86	H	0.371134	0.076692	0.33485
87	C	0.997064	0.554907	0.002676
88	C	0.997021	0.531356	0.293671
89	C	0.000621	0.476045	0.28847
90	C	0.00361	0.443644	0.327307
91	C	0.004924	0.467235	0.037018
92	H	0.994702	0.555278	0.266267
93	C	0.000996	0.52262	0.040685
94	H	0.000967	0.539984	0.071476
95	C	0.003065	0.453945	0.242531
96	H	0.002448	0.484481	0.216883
97	H	0.969551	0.428113	0.236367
98	H	0.03945	0.431596	0.238207
99	C	0.009921	0.4369	0.079282
100	H	0.014485	0.394631	0.074208
101	H	0.974885	0.44308	0.099757
102	H	0.044423	0.450624	0.097735
103	N	0.00535	0.387738	0.324816
104	H	0.03248	0.374974	0.301865
105	N	0.992822	0.610388	0.005447
106	H	0.960783	0.619777	0.024865
107	C	0.441803	0.998389	0.002606
108	C	0.465596	0.997936	0.293697
109	C	0.52096	0.001241	0.288703
110	C	0.553169	0.004335	0.327651
111	C	0.529336	0.006027	0.037261
112	H	0.441809	0.995554	0.266207
113	C	0.473905	0.002399	0.040723
114	H	0.456367	0.002642	0.071444
115	C	0.543348	0.00327	0.242849
116	H	0.512967	0.002447	0.21707
117	H	0.569158	0.969695	0.237016
118	H	0.565797	0.039603	0.238403
119	C	0.559464	0.011135	0.079625
120	H	0.601786	0.015502	0.074699
121	H	0.552985	0.976237	0.10021
122	H	0.545825	0.04579	0.097889
123	N	0.609099	0.005865	0.325352
124	H	0.62212	0.03271	0.30225
125	N	0.386279	0.994379	0.005188
126	H	0.376628	0.962549	0.024773
127	C	0.917235	0.851585	0.337488
128	C	0.874359	0.88498	0.33552
129	C	0.892992	0.936753	0.332522
130	N	0.946296	0.932805	0.332627
131	C	0.963049	0.882196	0.335776
132	C	0.015309	0.861984	0.337458
133	C	0.061847	0.893065	0.337315
134	N	0.065457	0.946175	0.336069
135	C	0.116085	0.962632	0.337565
136	C	0.147001	0.917117	0.339587
137	C	0.11354	0.87419	0.339337
138	C	0.134895	0.015329	0.337388
139	C	0.102588	0.061058	0.33506
140	N	0.0493	0.065015	0.334051
141	C	0.032593	0.11571	0.331803
142	C	0.078479	0.146289	0.330993
143	C	0.121311	0.112858	0.333248
144	C	0.980316	0.135965	0.330203
145	C	0.933804	0.104766	0.329936
146	N	0.930149	0.051633	0.330981
147	C	0.879498	0.035148	0.329818
148	C	0.848614	0.080689	0.3279
149	C	0.882072	0.123603	0.328353
150	C	0.860595	0.982461	0.330413
151	C	0.805	0.974948	0.328385
152	C	0.773373	0.981664	0.366693
153	C	0.718402	0.974763	0.364218
154	C	0.694007	0.960309	0.32366
155	C	0.725913	0.953317	0.618825
156	C	0.780794	0.960778	0.621073
157	C	0.973908	0.191669	0.327746
158	C	0.979123	0.223243	0.366257
159	C	0.972648	0.278244	0.363619
160	C	0.960007	0.302712	0.322673
161	C	0.954781	0.27091	0.617573
162	C	0.961938	0.216014	0.619994
163	C	0.190278	0.022778	0.341429
164	C	0.222737	0.025291	0.636608
165	C	0.27756	0.032	0.641128
166	C	0.300966	0.036439	0.350395
167	C	0.268184	0.034062	0.38844
168	C	0.213405	0.027236	0.384047
169	C	0.021647	0.806504	0.341768
170	C	0.024517	0.77398	0.637015
171	C	0.025299	0.783422	0.38446
172	C	0.031813	0.728628	0.388973
173	C	0.034629	0.695796	0.350985
174	C	0.030849	0.719139	0.641651
175	H	0.032731	0.696262	0.613616
176	H	0.021962	0.78996	0.605778
177	H	0.034105	0.712869	0.42028
178	H	0.02323	0.806319	0.412496
179	H	0.914653	0.811481	0.340153
180	H	0.835964	0.872766	0.336739
181	H	0.969605	0.962517	0.330186
182	H	0.025969	0.035254	0.335696
183	H	0.12553	0.835755	0.340872
184	H	0.187206	0.914862	0.341142
185	H	0.206738	0.022012	0.605425
186	H	0.30041	0.03348	0.613056
187	H	0.190579	0.025308	0.412136
188	H	0.283987	0.036782	0.41971
189	H	0.159741	0.125061	0.333122
190	H	0.081171	0.186441	0.329068
191	H	0.808407	0.083029	0.326615
192	H	0.869977	0.162024	0.327359
193	H	0.987809	0.206432	0.396378
194	H	0.976716	0.300311	0.391934
195	H	0.958094	0.193913	0.591635
196	H	0.946225	0.287541	0.587379
197	H	0.802936	0.955876	0.592861
198	H	0.709346	0.943442	0.588887
199	H	0.696272	0.980102	0.392344
200	H	0.790099	0.991973	0.396484
201	C	0.953566	0.360852	0.320155
202	H	0.927082	0.37334	0.346921
203	H	0.93476	0.372046	0.622196
204	C	0.635829	0.953959	0.321238
205	H	0.623298	0.927947	0.348323
206	H	0.624497	0.934714	0.623498
207	C	0.040747	0.637773	0.355352
208	H	0.048192	0.62664	0.390009
209	H	0.075172	0.625736	0.669201
210	C	0.359017	0.042548	0.354665
211	H	0.370198	0.050432	0.389246
212	H	0.371134	0.076692	0.668185
213	C	0.997064	0.554907	0.336009
214	C	0.997021	0.531356	0.627002
215	C	0.000621	0.476045	0.621803
216	C	0.00361	0.443644	0.660641
217	C	0.004924	0.467235	0.37035
218	H	0.994702	0.555278	0.599599
219	C	0.000996	0.52262	0.374018
220	H	0.000967	0.539984	0.404808
221	C	0.003065	0.453945	0.575864
222	H	0.002448	0.484481	0.550216
223	H	0.969551	0.428113	0.569702
224	H	0.03945	0.431596	0.57154
225	C	0.009921	0.4369	0.412616
226	H	0.014485	0.394631	0.407543
227	H	0.974885	0.44308	0.43309
228	H	0.044423	0.450624	0.431068
229	N	0.00535	0.387738	0.658149
230	H	0.03248	0.374974	0.635199
231	N	0.992822	0.610388	0.338781
232	H	0.960783	0.619777	0.358199
233	C	0.441803	0.998389	0.335939
234	C	0.465596	0.997936	0.627029
235	C	0.52096	0.001241	0.622036
236	C	0.553169	0.004335	0.660984
237	C	0.529336	0.006027	0.370594
238	H	0.441809	0.995554	0.599539
239	C	0.473905	0.002399	0.374054
240	H	0.456367	0.002642	0.404778
241	C	0.543348	0.00327	0.576184
242	H	0.512967	0.002447	0.550403
243	H	0.569158	0.969695	0.570348
244	H	0.565797	0.039603	0.571737
245	C	0.559464	0.011135	0.412959
246	H	0.601786	0.015502	0.408032
247	H	0.552985	0.976237	0.433543
248	H	0.545825	0.04579	0.431222
249	N	0.609099	0.005865	0.658685
250	H	0.62212	0.03271	0.635583
251	N	0.386279	0.994379	0.338521
252	H	0.376628	0.962549	0.358106
253	C	0.917235	0.851585	0.67082
254	C	0.874359	0.88498	0.668854
255	C	0.892992	0.936753	0.665853
256	N	0.946296	0.932805	0.66596
257	C	0.963049	0.882196	0.669111
258	C	0.015309	0.861984	0.67079
259	C	0.061847	0.893065	0.670646
260	N	0.065457	0.946175	0.669401
261	C	0.116085	0.962632	0.670896
262	C	0.147001	0.917117	0.672918
263	C	0.11354	0.87419	0.672672
264	C	0.134895	0.015329	0.67072
265	C	0.102588	0.061058	0.668391
266	N	0.0493	0.065015	0.667385
267	C	0.032593	0.11571	0.665137
268	C	0.078479	0.146289	0.664328
269	C	0.121311	0.112858	0.666583
270	C	0.980316	0.135965	0.663535
271	C	0.933804	0.104766	0.663269
272	N	0.930149	0.051633	0.664314
273	C	0.879498	0.035148	0.663152
274	C	0.848614	0.080689	0.661233
275	C	0.882072	0.123603	0.661686
276	C	0.860595	0.982461	0.663745
277	C	0.805	0.974948	0.66172
278	C	0.773373	0.981664	0.700024
279	C	0.718402	0.974763	0.697553
280	C	0.694007	0.960309	0.656993
281	C	0.725913	0.953317	0.952156
282	C	0.780794	0.960778	0.954408
283	C	0.973908	0.191669	0.66108
284	C	0.979123	0.223243	0.699591
285	C	0.972648	0.278244	0.696953
286	C	0.960007	0.302712	0.656007
287	C	0.954781	0.27091	0.950907
288	C	0.961938	0.216014	0.953326
289	C	0.190278	0.022778	0.67476
290	C	0.222737	0.025291	0.969943
291	C	0.27756	0.032	0.97446
292	C	0.300966	0.036439	0.68373
293	C	0.268184	0.034062	0.721775
294	C	0.213405	0.027236	0.717378
295	C	0.021647	0.806504	0.675103
296	C	0.024517	0.77398	0.970349
297	C	0.025299	0.783422	0.717791
298	C	0.031813	0.728628	0.722308
299	C	0.034629	0.695796	0.68432
300	C	0.030849	0.719139	0.974986
301	H	0.032731	0.696262	0.94695
302	H	0.021962	0.78996	0.939109
303	H	0.034105	0.712869	0.753614
304	H	0.02323	0.806319	0.745827
305	H	0.914653	0.811481	0.673484
306	H	0.835964	0.872766	0.670073
307	H	0.969605	0.962517	0.663518
308	H	0.025969	0.035254	0.669031
309	H	0.12553	0.835755	0.674204
310	H	0.187206	0.914862	0.674474
311	H	0.206738	0.022012	0.93876
312	H	0.30041	0.03348	0.946387
313	H	0.190579	0.025308	0.745467
314	H	0.283987	0.036782	0.753042
315	H	0.159741	0.125061	0.666456
316	H	0.081171	0.186441	0.662399
317	H	0.808407	0.083029	0.659948
318	H	0.869977	0.162024	0.66069
319	H	0.987809	0.206432	0.729712
320	H	0.976716	0.300311	0.725266
321	H	0.958094	0.193913	0.92497
322	H	0.946225	0.287541	0.920713
323	H	0.802936	0.955876	0.926192
324	H	0.709346	0.943442	0.922222
325	H	0.696272	0.980102	0.725675
326	H	0.790099	0.991973	0.729819
327	C	0.953566	0.360852	0.653486
328	H	0.927082	0.37334	0.680253
329	H	0.93476	0.372046	0.955531
330	C	0.635829	0.953959	0.654572
331	H	0.623298	0.927947	0.681658
332	H	0.624497	0.934714	0.956833
333	C	0.040747	0.637773	0.688686
334	H	0.048192	0.62664	0.723344
335	H	0.075172	0.625736	0.002535
336	C	0.359017	0.042548	0.687997
337	H	0.370198	0.050432	0.722578
338	H	0.371134	0.076692	0.001518
339	C	0.997064	0.554907	0.669344
340	C	0.997021	0.531356	0.960337
341	C	0.000621	0.476045	0.955137
342	C	0.00361	0.443644	0.993972
343	C	0.004924	0.467235	0.703685
344	H	0.994702	0.555278	0.932934
345	C	0.000996	0.52262	0.707352
346	H	0.000967	0.539984	0.738143
347	C	0.003065	0.453945	0.909198
348	H	0.002448	0.484481	0.883551
349	H	0.969551	0.428113	0.903033
350	H	0.03945	0.431596	0.904872
351	C	0.009921	0.4369	0.745947
352	H	0.014485	0.394631	0.740874
353	H	0.974885	0.44308	0.766422
354	H	0.044423	0.450624	0.7644
355	N	0.00535	0.387738	0.991484
356	H	0.03248	0.374974	0.968531
357	N	0.992822	0.610388	0.672112
358	H	0.960783	0.619777	0.691531
359	C	0.441803	0.998389	0.669271
360	C	0.465596	0.997936	0.960364
361	C	0.52096	0.001241	0.955367
362	C	0.553169	0.004335	0.994318
363	C	0.529336	0.006027	0.703928
364	H	0.441809	0.995554	0.932874
365	C	0.473905	0.002399	0.707389
366	H	0.456367	0.002642	0.738109
367	C	0.543348	0.00327	0.909515
368	H	0.512967	0.002447	0.883737
369	H	0.569158	0.969695	0.903683
370	H	0.565797	0.039603	0.905068
371	C	0.559464	0.011135	0.74629
372	H	0.601786	0.015502	0.741367
373	H	0.552985	0.976237	0.766875
374	H	0.545825	0.04579	0.764556
375	N	0.609099	0.005865	0.992017
376	H	0.62212	0.03271	0.968917
377	N	0.386279	0.994379	0.671852
378	H	0.376628	0.962549	0.691438
