data_C198H144N42_2018-02-15_10:40:48
#******************************************
#
# CIF file created by Zeo++
# Zeo++ is an open source package to
# analyze microporous materials
#
#*******************************************

_cell_length_a		32.177   
_cell_length_b		32.1771   
_cell_length_c		28.8768   
_cell_angle_alpha		90   
_cell_angle_beta		90   
_cell_angle_gamma		120   

_symmetry_space_group_name_H-M		'P1'
_symmetry_Int_Tables_number		1
_symmetry_cell_setting		Monoclinic

loop_
_symmetry_equiv_pos_as_xyz
'+x,+y,+z'

loop_
_atom_site_label
_atom_site_type_symbol
_atom_site_fract_x
_atom_site_fract_y
_atom_site_fract_z
1	N	0.368495	0.686564	0.018783
2	C	0.394224	0.661365	0.020576
3	C	0.394616	0.737608	0.018077
4	C	0.317374	0.66092	0.020417
5	C	0.290272	0.625551	0.987118
6	C	0.239728	0.599921	0.988887
7	C	0.213504	0.609653	0.022661
8	C	0.24172	0.646139	0.055347
9	C	0.292285	0.670422	0.054942
10	C	0.400089	0.642568	0.062575
11	C	0.392749	0.763464	0.979464
12	H	0.386134	0.647466	0.092537
13	H	0.30734	0.617527	0.961782
14	H	0.222541	0.573473	0.964875
15	H	0.372692	0.745438	0.951179
16	H	0.310846	0.696285	0.079271
17	H	0.226092	0.65675	0.079794
18	C	0.161276	0.584598	0.023194
19	C	0.13315	0.560562	0.317133
20	N	0.084601	0.53846	0.318157
21	C	0.058293	0.537821	0.021874
22	C	0.083568	0.561473	0.062942
23	C	0.13434	0.583073	0.062831
24	H	0.15185	0.598378	0.092973
25	H	0.148294	0.560016	0.286327
26	H	0.036147	0.568787	0.275375
27	N	0.061679	0.566013	0.101416
28	H	0.080236	0.58416	0.128141
29	N	0.368495	0.686564	0.352117
30	C	0.394224	0.661365	0.35391
31	C	0.394616	0.737608	0.35141
32	C	0.317374	0.66092	0.353751
33	C	0.290272	0.625551	0.320452
34	C	0.239728	0.599921	0.322221
35	C	0.213504	0.609653	0.355995
36	C	0.24172	0.646139	0.388679
37	C	0.292285	0.670422	0.388277
38	C	0.400089	0.642568	0.395909
39	C	0.392749	0.763464	0.312798
40	H	0.386134	0.647466	0.425871
41	H	0.30734	0.617527	0.295114
42	H	0.222541	0.573473	0.298208
43	H	0.372692	0.745438	0.284513
44	H	0.310846	0.696285	0.412605
45	H	0.226092	0.65675	0.413127
46	C	0.161276	0.584598	0.356528
47	C	0.13315	0.560562	0.650467
48	N	0.084601	0.53846	0.651488
49	C	0.058293	0.537821	0.355209
50	C	0.083568	0.561473	0.396277
51	C	0.13434	0.583073	0.396162
52	H	0.15185	0.598378	0.426308
53	H	0.148294	0.560016	0.61966
54	H	0.036147	0.568787	0.60871
55	N	0.061679	0.566013	0.43475
56	H	0.080236	0.58416	0.461474
57	N	0.368495	0.686564	0.68545
58	C	0.394224	0.661365	0.687244
59	C	0.394616	0.737608	0.684743
60	C	0.317374	0.66092	0.687084
61	C	0.290272	0.625551	0.653784
62	C	0.239728	0.599921	0.655554
63	C	0.213504	0.609653	0.689328
64	C	0.24172	0.646139	0.722015
65	C	0.292285	0.670422	0.72161
66	C	0.400089	0.642568	0.729243
67	C	0.392749	0.763464	0.646131
68	H	0.386134	0.647466	0.759204
69	H	0.30734	0.617527	0.628449
70	H	0.222541	0.573473	0.631541
71	H	0.372692	0.745438	0.617845
72	H	0.310846	0.696285	0.745938
73	H	0.226092	0.65675	0.746461
74	C	0.161276	0.584598	0.689862
75	C	0.13315	0.560562	0.9838
76	N	0.084601	0.53846	0.984825
77	C	0.058293	0.537821	0.688542
78	C	0.083568	0.561473	0.72961
79	C	0.13434	0.583073	0.729499
80	H	0.15185	0.598378	0.759641
81	H	0.148294	0.560016	0.952993
82	H	0.036147	0.568787	0.942043
83	N	0.061679	0.566013	0.768084
84	H	0.080236	0.58416	0.794807
85	C	0.425628	0.617548	0.063819
86	C	0.4455	0.6097	0.023105
87	C	0.439011	0.628702	0.981116
88	C	0.414171	0.654392	0.979894
89	C	0.422114	0.763557	0.056788
90	C	0.447103	0.814081	0.056908
91	C	0.445312	0.840586	0.018485
92	C	0.417689	0.814073	0.979696
93	H	0.429988	0.605552	0.095225
94	H	0.409867	0.667282	0.948966
95	H	0.451437	0.623157	0.950483
96	H	0.423859	0.745689	0.085331
97	H	0.467106	0.831342	0.085486
98	H	0.414377	0.831388	0.951459
99	H	0.602126	0.399944	0.08574
100	C	0.470347	0.582879	0.024071
101	C	0.510057	0.594445	0.328294
102	N	0.531806	0.567635	0.328605
103	C	0.51815	0.52863	0.022749
104	C	0.479046	0.515012	0.053713
105	C	0.45587	0.54268	0.053513
106	H	0.426529	0.532025	0.074337
107	C	0.544158	0.503887	0.351659
108	C	0.546324	0.481042	0.310273
109	C	0.573587	0.457451	0.311073
110	C	0.598063	0.455832	0.351223
111	C	0.594395	0.479725	0.057438
112	N	0.568363	0.502297	0.056233
113	H	0.574172	0.439583	0.281981
114	H	0.611643	0.480967	0.087552
115	H	0.523531	0.623412	0.306655
116	N	0.522379	0.479618	0.27093
117	H	0.501607	0.493448	0.26951
118	H	0.523844	0.462999	0.243383
119	N	0.462203	0.476112	0.08203
120	H	0.434999	0.467298	0.102472
121	H	0.475822	0.45514	0.081993
122	C	0.469853	0.89215	0.019316
123	C	0.493404	0.920019	0.313155
124	N	0.51578	0.968612	0.314698
125	C	0.517419	0.994077	0.019565
126	C	0.494764	0.968752	0.060862
127	C	0.471357	0.917927	0.059687
128	H	0.453676	0.899248	0.088756
129	C	0.541911	0.044843	0.348868
130	C	0.527469	0.070377	0.318881
131	C	0.554905	0.121228	0.319389
132	C	0.59563	0.146899	0.348235
133	C	0.607919	0.118712	0.04313
134	N	0.581336	0.070134	0.042515
135	H	0.543722	0.139946	0.299265
136	H	0.494721	0.904265	0.2829
137	N	0.488039	0.048329	0.291225
138	H	0.46731	0.013685	0.291032
139	H	0.478693	0.066725	0.271419
140	N	0.493387	0.99094	0.100463
141	H	0.477069	0.972649	0.128022
142	H	0.507361	0.025544	0.102232
143	C	0.425628	0.617548	0.397153
144	C	0.4455	0.6097	0.356438
145	C	0.439011	0.628702	0.31445
146	C	0.414171	0.654392	0.313225
147	C	0.422114	0.763557	0.390123
148	C	0.447103	0.814081	0.390241
149	C	0.445312	0.840586	0.351819
150	C	0.417689	0.814073	0.313028
151	H	0.429988	0.605552	0.428558
152	H	0.409867	0.667282	0.282299
153	H	0.451437	0.623157	0.283817
154	H	0.423859	0.745689	0.418665
155	H	0.467106	0.831342	0.418817
156	H	0.414377	0.831388	0.284792
157	H	0.602126	0.399944	0.419073
158	C	0.470347	0.582879	0.357404
159	C	0.510057	0.594445	0.661628
160	N	0.531806	0.567635	0.66194
161	C	0.51815	0.52863	0.356082
162	C	0.479046	0.515012	0.387048
163	C	0.45587	0.54268	0.386847
164	H	0.426529	0.532025	0.40767
165	C	0.544158	0.503887	0.684993
166	C	0.546324	0.481042	0.643607
167	C	0.573587	0.457451	0.644406
168	C	0.598063	0.455832	0.684556
169	C	0.594395	0.479725	0.39077
170	N	0.568363	0.502297	0.389565
171	H	0.574172	0.439583	0.615314
172	H	0.611643	0.480967	0.420885
173	H	0.523531	0.623412	0.639988
174	N	0.522379	0.479618	0.604264
175	H	0.501607	0.493448	0.602844
176	H	0.523844	0.462999	0.576715
177	N	0.462203	0.476112	0.415365
178	H	0.434999	0.467298	0.435803
179	H	0.475822	0.45514	0.415326
180	C	0.469853	0.89215	0.35265
181	C	0.493404	0.920019	0.646488
182	N	0.51578	0.968612	0.648032
183	C	0.517419	0.994077	0.352899
184	C	0.494764	0.968752	0.394195
185	C	0.471357	0.917927	0.393021
186	H	0.453676	0.899248	0.42209
187	C	0.541911	0.044843	0.682202
188	C	0.527469	0.070377	0.652216
189	C	0.554905	0.121228	0.652721
190	C	0.59563	0.146899	0.681568
191	C	0.607919	0.118712	0.376465
192	N	0.581336	0.070134	0.375848
193	H	0.543722	0.139946	0.632598
194	H	0.494721	0.904265	0.616232
195	N	0.488039	0.048329	0.624557
196	H	0.46731	0.013685	0.624366
197	H	0.478693	0.066725	0.604752
198	N	0.493387	0.99094	0.433798
199	H	0.477069	0.972649	0.461356
200	H	0.507361	0.025544	0.435564
201	C	0.425628	0.617548	0.730486
202	C	0.4455	0.6097	0.689772
203	C	0.439011	0.628702	0.647783
204	C	0.414171	0.654392	0.64656
205	C	0.422114	0.763557	0.723456
206	C	0.447103	0.814081	0.723574
207	C	0.445312	0.840586	0.685152
208	C	0.417689	0.814073	0.64636
209	H	0.429988	0.605552	0.761892
210	H	0.409867	0.667282	0.615633
211	H	0.451437	0.623157	0.617149
212	H	0.423859	0.745689	0.751998
213	H	0.467106	0.831342	0.752154
214	H	0.414377	0.831388	0.618126
215	H	0.602126	0.399944	0.752407
216	C	0.470347	0.582879	0.690738
217	C	0.510057	0.594445	0.994961
218	N	0.531806	0.567635	0.995273
219	C	0.51815	0.52863	0.689415
220	C	0.479046	0.515012	0.720381
221	C	0.45587	0.54268	0.72018
222	H	0.426529	0.532025	0.741003
223	C	0.544158	0.503887	0.018326
224	C	0.546324	0.481042	0.97694
225	C	0.573587	0.457451	0.97774
226	C	0.598063	0.455832	0.01789
227	C	0.594395	0.479725	0.724104
228	N	0.568363	0.502297	0.722899
229	H	0.574172	0.439583	0.948647
230	H	0.611643	0.480967	0.754218
231	H	0.523531	0.623412	0.973321
232	N	0.522379	0.479618	0.937597
233	H	0.501607	0.493448	0.936177
234	H	0.523844	0.462999	0.910049
235	N	0.462203	0.476112	0.748698
236	H	0.434999	0.467298	0.76914
237	H	0.475822	0.45514	0.74866
238	C	0.469853	0.89215	0.685983
239	C	0.493404	0.920019	0.979821
240	N	0.51578	0.968612	0.981365
241	C	0.517419	0.994077	0.686232
242	C	0.494764	0.968752	0.727529
243	C	0.471357	0.917927	0.726355
244	H	0.453676	0.899248	0.755423
245	C	0.541911	0.044843	0.015535
246	C	0.527469	0.070377	0.985549
247	C	0.554905	0.121228	0.986054
248	C	0.59563	0.146899	0.014901
249	C	0.607919	0.118712	0.709798
250	N	0.581336	0.070134	0.709182
251	H	0.543722	0.139946	0.965931
252	H	0.494721	0.904265	0.949568
253	N	0.488039	0.048329	0.957893
254	H	0.46731	0.013685	0.957699
255	H	0.478693	0.066725	0.938085
256	N	0.493387	0.99094	0.767131
257	H	0.477069	0.972649	0.79469
258	H	0.507361	0.025544	0.768901
259	C	0.652376	0.43157	0.980257
260	C	0.624321	0.430511	0.018627
261	C	0.622569	0.402736	0.057511
262	C	0.647545	0.377149	0.05798
263	C	0.654766	0.276876	0.976749
264	C	0.629559	0.226325	0.975471
265	C	0.622362	0.198561	0.01602
266	C	0.642104	0.223996	0.05789
267	H	0.645345	0.357358	0.086539
268	H	0.617066	0.210008	0.944128
269	H	0.637133	0.205963	0.088397
270	H	0.637275	0.134195	0.064284
271	C	0.652376	0.43157	0.313589
272	C	0.624321	0.430511	0.351961
273	C	0.622569	0.402736	0.390843
274	C	0.647545	0.377149	0.391314
275	C	0.654766	0.276876	0.310084
276	C	0.629559	0.226325	0.308805
277	C	0.622362	0.198561	0.34935
278	C	0.642104	0.223996	0.391224
279	H	0.645345	0.357358	0.419873
280	H	0.617066	0.210008	0.277461
281	H	0.637133	0.205963	0.421729
282	H	0.637275	0.134195	0.397617
283	C	0.652376	0.43157	0.646924
284	C	0.624321	0.430511	0.685294
285	C	0.622569	0.402736	0.724176
286	C	0.647545	0.377149	0.724647
287	C	0.654766	0.276876	0.643416
288	C	0.629559	0.226325	0.642138
289	C	0.622362	0.198561	0.682683
290	C	0.642104	0.223996	0.724557
291	H	0.645345	0.357358	0.753207
292	H	0.617066	0.210008	0.610795
293	H	0.637133	0.205963	0.755063
294	H	0.637275	0.134195	0.73095
295	H	0.027853	0.556406	0.10146
296	H	0.027853	0.556406	0.434792
297	H	0.027853	0.556406	0.768125
298	N	0.70015	0.35239	0.020081
299	C	0.675115	0.378337	0.019492
300	C	0.674308	0.301501	0.018617
301	C	0.751085	0.377131	0.019507
302	C	0.777572	0.40209	0.059023
303	C	0.82814	0.427074	0.058304
304	C	0.853817	0.428272	0.017942
305	C	0.826804	0.403044	0.978464
306	C	0.77626	0.377713	0.979277
307	C	0.67731	0.40593	0.980635
308	C	0.667895	0.274541	0.059156
309	H	0.655519	0.451666	0.951632
310	H	0.697161	0.407462	0.95236
311	H	0.760046	0.40233	0.088481
312	H	0.84608	0.445587	0.08733
313	H	0.659368	0.295745	0.946857
314	H	0.681477	0.291705	0.089964
315	H	0.757819	0.360042	0.950154
316	H	0.843752	0.402474	0.948696
317	C	0.007228	0.511886	0.350631
318	C	0.981184	0.514782	0.311972
319	C	0.930416	0.485733	0.312464
320	C	0.905217	0.455212	0.350042
321	C	0.933349	0.453733	0.053476
322	N	0.981834	0.481031	0.052117
323	H	0.911181	0.488621	0.285655
324	H	0.917868	0.4319	0.081453
325	N	0.002161	0.545317	0.275738
326	H	0.983114	0.546979	0.25039
327	N	0.70015	0.35239	0.353415
328	C	0.675115	0.378337	0.352826
329	C	0.674308	0.301501	0.35195
330	C	0.751085	0.377131	0.35284
331	C	0.777572	0.40209	0.392356
332	C	0.82814	0.427074	0.391636
333	C	0.853817	0.428272	0.351275
334	C	0.826804	0.403044	0.311797
335	C	0.77626	0.377713	0.312612
336	C	0.67731	0.40593	0.313967
337	C	0.667895	0.274541	0.392488
338	H	0.655519	0.451666	0.284967
339	H	0.697161	0.407462	0.285692
340	H	0.760046	0.40233	0.421813
341	H	0.84608	0.445587	0.420663
342	H	0.659368	0.295745	0.280191
343	H	0.681477	0.291705	0.423298
344	H	0.757819	0.360042	0.283488
345	H	0.843752	0.402474	0.282027
346	C	0.007228	0.511886	0.683964
347	C	0.981184	0.514782	0.645307
348	C	0.930416	0.485733	0.645799
349	C	0.905217	0.455212	0.683375
350	C	0.933349	0.453733	0.386809
351	N	0.981834	0.481031	0.385451
352	H	0.911181	0.488621	0.618988
353	H	0.917868	0.4319	0.414786
354	N	0.002161	0.545317	0.60907
355	H	0.983114	0.546979	0.583725
356	N	0.70015	0.35239	0.686748
357	C	0.675115	0.378337	0.68616
358	C	0.674308	0.301501	0.685284
359	C	0.751085	0.377131	0.686174
360	C	0.777572	0.40209	0.72569
361	C	0.82814	0.427074	0.724969
362	C	0.853817	0.428272	0.684608
363	C	0.826804	0.403044	0.64513
364	C	0.77626	0.377713	0.645944
365	C	0.67731	0.40593	0.647302
366	C	0.667895	0.274541	0.725821
367	H	0.655519	0.451666	0.618299
368	H	0.697161	0.407462	0.619026
369	H	0.760046	0.40233	0.755146
370	H	0.84608	0.445587	0.753996
371	H	0.659368	0.295745	0.613524
372	H	0.681477	0.291705	0.756631
373	H	0.757819	0.360042	0.61682
374	H	0.843752	0.402474	0.615362
375	C	0.007228	0.511886	0.017297
376	C	0.981184	0.514782	0.97864
377	C	0.930416	0.485733	0.979132
378	C	0.905217	0.455212	0.016709
379	C	0.933349	0.453733	0.720142
380	N	0.981834	0.481031	0.718785
381	H	0.911181	0.488621	0.952321
382	H	0.917868	0.4319	0.748119
383	N	0.002161	0.545317	0.942403
384	H	0.983114	0.546979	0.917058
