data_C144H126N36_2018-02-15_10:34:04
#******************************************
#
# CIF file created by Zeo++
# Zeo++ is an open source package to
# analyze microporous materials
#
#*******************************************

_cell_length_a		29.0629   
_cell_length_b		29.0629   
_cell_length_c		30.0186   
_cell_angle_alpha		90   
_cell_angle_beta		90   
_cell_angle_gamma		120   

_symmetry_space_group_name_H-M		'P1'
_symmetry_Int_Tables_number		1
_symmetry_cell_setting		Monoclinic

loop_
_symmetry_equiv_pos_as_xyz
'+x,+y,+z'

loop_
_atom_site_label
_atom_site_type_symbol
_atom_site_fract_x
_atom_site_fract_y
_atom_site_fract_z
1	C	0.357164	0.634553	0.063029
2	C	0.301239	0.610682	0.06322
3	C	0.276771	0.642058	0.063045
4	C	0.308825	0.697979	0.063236
5	C	0.364668	0.72245	0.063045
6	C	0.388537	0.690395	0.063227
7	H	0.29131	0.720988	0.063369
8	H	0.429061	0.707912	0.063346
9	H	0.278232	0.570161	0.063343
10	N	0.383199	0.604488	0.062974
11	H	0.370275	0.579124	0.089804
12	N	0.394735	0.77855	0.062997
13	H	0.420093	0.790986	0.089829
14	N	0.22067	0.616022	0.062999
15	H	0.208237	0.628935	0.08984
16	C	0.641919	0.36483	0.936342
17	C	0.697842	0.388687	0.936155
18	C	0.722301	0.357303	0.936345
19	C	0.690234	0.30138	0.936159
20	C	0.634393	0.276922	0.936345
21	C	0.610537	0.308989	0.936155
22	H	0.707739	0.278365	0.936035
23	H	0.570014	0.291482	0.936025
24	H	0.72086	0.429211	0.936029
25	N	0.615899	0.394908	0.936382
26	H	0.628828	0.420263	0.909549
27	N	0.604313	0.220823	0.936392
28	H	0.578961	0.208394	0.909559
29	N	0.778401	0.383325	0.936395
30	H	0.790829	0.3704	0.909562
31	C	0.584758	0.44651	0.98218
32	C	0.544797	0.437205	0.284028
33	C	0.510817	0.458079	0.290368
34	C	0.516188	0.488668	0.995412
35	N	0.554999	0.496523	0.02498
36	C	0.588512	0.477134	0.019978
37	C	0.482925	0.510755	0.337261
38	C	0.488297	0.541344	0.042304
39	C	0.454315	0.562214	0.048644
40	C	0.41436	0.552917	0.350489
41	C	0.410596	0.522285	0.312695
42	N	0.444111	0.502896	0.307692
43	H	0.382797	0.51437	0.288556
44	H	0.516787	0.548956	0.065734
45	H	0.459494	0.584595	0.076438
46	H	0.616309	0.485045	0.044121
47	H	0.539622	0.414828	0.256233
48	H	0.482333	0.450475	0.266933
49	C	0.377607	0.574475	0.354606
50	H	0.336739	0.541419	0.352061
51	H	0.385127	0.60075	0.326059
52	C	0.621493	0.424932	0.978076
53	H	0.613961	0.398658	0.00663
54	H	0.662368	0.45798	0.980624
55	C	0.552715	0.138086	0.982197
56	C	0.56203	0.10743	0.284051
57	C	0.541159	0.052579	0.290395
58	C	0.510565	0.027362	0.995435
59	N	0.5027	0.058317	0.024999
60	C	0.522085	0.11122	0.019992
61	C	0.488479	0.972013	0.337287
62	C	0.457889	0.946799	0.042329
63	C	0.437013	0.891943	0.04867
64	C	0.446315	0.861286	0.350519
65	C	0.476953	0.888156	0.312725
66	N	0.496342	0.941058	0.307722
67	H	0.48487	0.868271	0.288588
68	H	0.450271	0.967674	0.065758
69	H	0.41463	0.874743	0.076462
70	H	0.51417	0.131105	0.04413
71	H	0.584411	0.124632	0.256258
72	H	0.548773	0.031699	0.266966
73	C	0.424756	0.802977	0.354633
74	H	0.45781	0.795162	0.352091
75	H	0.398483	0.784224	0.326082
76	C	0.574288	0.196399	0.978086
77	H	0.600559	0.215145	0.006639
78	H	0.541238	0.204222	0.980628
79	C	0.861133	0.414467	0.982203
80	C	0.891787	0.454448	0.284063
81	C	0.946639	0.488434	0.290409
82	C	0.971857	0.483046	0.995445
83	N	0.940902	0.444217	0.025004
84	C	0.888005	0.4107	0.019995
85	C	0.027203	0.516313	0.337297
86	C	0.052426	0.510926	0.04233
87	C	0.107279	0.544908	0.048671
88	C	0.13793	0.584881	0.350529
89	C	0.111056	0.588663	0.312746
90	N	0.058152	0.555146	0.307742
91	H	0.130937	0.616479	0.288617
92	H	0.031551	0.482419	0.065751
93	H	0.124486	0.539715	0.076456
94	H	0.86812	0.382891	0.044129
95	H	0.874584	0.459633	0.256273
96	H	0.967514	0.516929	0.266984
97	C	0.196241	0.621636	0.354646
98	H	0.204051	0.662504	0.352118
99	H	0.214993	0.614131	0.326085
100	C	0.802824	0.377723	0.978089
101	H	0.784075	0.385245	0.006644
102	H	0.795003	0.336853	0.980631
103	C	0.357164	0.634553	0.396364
104	C	0.301239	0.610682	0.396554
105	C	0.276771	0.642058	0.396377
106	C	0.308825	0.697979	0.39657
107	C	0.364668	0.72245	0.396377
108	C	0.388537	0.690395	0.39656
109	H	0.29131	0.720988	0.396704
110	H	0.429061	0.707912	0.39668
111	H	0.278232	0.570161	0.396677
112	N	0.383199	0.604488	0.396307
113	H	0.370275	0.579124	0.423137
114	N	0.394735	0.77855	0.396331
115	H	0.420093	0.790986	0.423164
116	N	0.22067	0.616022	0.396334
117	H	0.208237	0.628935	0.423174
118	C	0.641919	0.36483	0.269673
119	C	0.697842	0.388687	0.269487
120	C	0.722301	0.357303	0.269679
121	C	0.690234	0.30138	0.269493
122	C	0.634393	0.276922	0.269677
123	C	0.610537	0.308989	0.269487
124	H	0.707739	0.278365	0.269367
125	H	0.570014	0.291482	0.269357
126	H	0.72086	0.429211	0.269361
127	N	0.615899	0.394908	0.269716
128	H	0.628828	0.420263	0.242882
129	N	0.604313	0.220823	0.269725
130	H	0.578961	0.208394	0.242891
131	N	0.778401	0.383325	0.269729
132	H	0.790829	0.3704	0.242895
133	C	0.584758	0.44651	0.315513
134	C	0.544797	0.437205	0.617363
135	C	0.510817	0.458079	0.623703
136	C	0.516188	0.488668	0.328744
137	N	0.554999	0.496523	0.358314
138	C	0.588512	0.477134	0.353311
139	C	0.482925	0.510755	0.670594
140	C	0.488297	0.541344	0.375637
141	C	0.454315	0.562214	0.381979
142	C	0.41436	0.552917	0.683825
143	C	0.410596	0.522285	0.646029
144	N	0.444111	0.502896	0.641025
145	H	0.382797	0.51437	0.62189
146	H	0.516787	0.548956	0.399069
147	H	0.459494	0.584595	0.409772
148	H	0.616309	0.485045	0.377456
149	H	0.539622	0.414828	0.589567
150	H	0.482333	0.450475	0.600267
151	C	0.377607	0.574475	0.687943
152	H	0.336739	0.541419	0.685394
153	H	0.385127	0.60075	0.659391
154	C	0.621493	0.424932	0.311409
155	H	0.613961	0.398658	0.339962
156	H	0.662368	0.45798	0.313957
157	C	0.552715	0.138086	0.315529
158	C	0.56203	0.10743	0.617383
159	C	0.541159	0.052579	0.623729
160	C	0.510565	0.027362	0.328769
161	N	0.5027	0.058317	0.358334
162	C	0.522085	0.11122	0.353327
163	C	0.488479	0.972013	0.67062
164	C	0.457889	0.946799	0.375663
165	C	0.437013	0.891943	0.382003
166	C	0.446315	0.861286	0.683852
167	C	0.476953	0.888156	0.646059
168	N	0.496342	0.941058	0.641055
169	H	0.48487	0.868271	0.62192
170	H	0.450271	0.967674	0.399092
171	H	0.41463	0.874743	0.409796
172	H	0.51417	0.131105	0.377462
173	H	0.584411	0.124632	0.589591
174	H	0.548773	0.031699	0.600301
175	C	0.424756	0.802977	0.687966
176	H	0.45781	0.795162	0.685424
177	H	0.398483	0.784224	0.659414
178	C	0.574288	0.196399	0.311419
179	H	0.600559	0.215145	0.339972
180	H	0.541238	0.204222	0.313962
181	C	0.861133	0.414467	0.315536
182	C	0.891787	0.454448	0.617397
183	C	0.946639	0.488434	0.623743
184	C	0.971857	0.483046	0.328779
185	N	0.940902	0.444217	0.358337
186	C	0.888005	0.4107	0.353331
187	C	0.027203	0.516313	0.67063
188	C	0.052426	0.510926	0.375663
189	C	0.107279	0.544908	0.382006
190	C	0.13793	0.584881	0.683862
191	C	0.111056	0.588663	0.646079
192	N	0.058152	0.555146	0.641075
193	H	0.130937	0.616479	0.62195
194	H	0.031551	0.482419	0.399086
195	H	0.124486	0.539715	0.409789
196	H	0.86812	0.382891	0.377462
197	H	0.874584	0.459633	0.589607
198	H	0.967514	0.516929	0.600317
199	C	0.196241	0.621636	0.687979
200	H	0.204051	0.662504	0.685451
201	H	0.214993	0.614131	0.659417
202	C	0.802824	0.377723	0.311424
203	H	0.784075	0.385245	0.339979
204	H	0.795003	0.336853	0.313964
205	C	0.357164	0.634553	0.729697
206	C	0.301239	0.610682	0.729887
207	C	0.276771	0.642058	0.729714
208	C	0.308825	0.697979	0.729903
209	C	0.364668	0.72245	0.729714
210	C	0.388537	0.690395	0.729893
211	H	0.29131	0.720988	0.730037
212	H	0.429061	0.707912	0.730013
213	H	0.278232	0.570161	0.73001
214	N	0.383199	0.604488	0.72964
215	H	0.370275	0.579124	0.75647
216	N	0.394735	0.77855	0.729664
217	H	0.420093	0.790986	0.756497
218	N	0.22067	0.616022	0.729667
219	H	0.208237	0.628935	0.756507
220	C	0.641919	0.36483	0.603006
221	C	0.697842	0.388687	0.602822
222	C	0.722301	0.357303	0.603012
223	C	0.690234	0.30138	0.602826
224	C	0.634393	0.276922	0.603012
225	C	0.610537	0.308989	0.602822
226	H	0.707739	0.278365	0.602702
227	H	0.570014	0.291482	0.602692
228	H	0.72086	0.429211	0.602696
229	N	0.615899	0.394908	0.603049
230	H	0.628828	0.420263	0.576216
231	N	0.604313	0.220823	0.603059
232	H	0.578961	0.208394	0.576226
233	N	0.778401	0.383325	0.603062
234	H	0.790829	0.3704	0.576229
235	C	0.584758	0.44651	0.648847
236	C	0.544797	0.437205	0.950696
237	C	0.510817	0.458079	0.957036
238	C	0.516188	0.488668	0.662079
239	N	0.554999	0.496523	0.691647
240	C	0.588512	0.477134	0.686647
241	C	0.482925	0.510755	0.003926
242	C	0.488297	0.541344	0.70897
243	C	0.454315	0.562214	0.715312
244	C	0.41436	0.552917	0.017157
245	C	0.410596	0.522285	0.979362
246	N	0.444111	0.502896	0.974358
247	H	0.382797	0.51437	0.955224
248	H	0.516787	0.548956	0.732402
249	H	0.459494	0.584595	0.743105
250	H	0.616309	0.485045	0.710789
251	H	0.539622	0.414828	0.9229
252	H	0.482333	0.450475	0.9336
253	C	0.377607	0.574475	0.021274
254	H	0.336739	0.541419	0.018727
255	H	0.385127	0.60075	0.992727
256	C	0.621493	0.424932	0.644743
257	H	0.613961	0.398658	0.673295
258	H	0.662368	0.45798	0.647291
259	C	0.552715	0.138086	0.648864
260	C	0.56203	0.10743	0.95072
261	C	0.541159	0.052579	0.957062
262	C	0.510565	0.027362	0.662102
263	N	0.5027	0.058317	0.691667
264	C	0.522085	0.11122	0.68666
265	C	0.488479	0.972013	0.003954
266	C	0.457889	0.946799	0.708996
267	C	0.437013	0.891943	0.715339
268	C	0.446315	0.861286	0.017184
269	C	0.476953	0.888156	0.979392
270	N	0.496342	0.941058	0.974388
271	H	0.48487	0.868271	0.955257
272	H	0.450271	0.967674	0.732425
273	H	0.41463	0.874743	0.743129
274	H	0.51417	0.131105	0.710799
275	H	0.584411	0.124632	0.922927
276	H	0.548773	0.031699	0.933634
277	C	0.424756	0.802977	0.0213
278	H	0.45781	0.795162	0.018757
279	H	0.398483	0.784224	0.99275
280	C	0.574288	0.196399	0.644753
281	H	0.600559	0.215145	0.673305
282	H	0.541238	0.204222	0.647295
283	C	0.861133	0.414467	0.64887
284	C	0.891787	0.454448	0.95073
285	C	0.946639	0.488434	0.957076
286	C	0.971857	0.483046	0.662112
287	N	0.940902	0.444217	0.69167
288	C	0.888005	0.4107	0.686664
289	C	0.027203	0.516313	0.003964
290	C	0.052426	0.510926	0.708996
291	C	0.107279	0.544908	0.715339
292	C	0.13793	0.584881	0.017196
293	C	0.111056	0.588663	0.979415
294	N	0.058152	0.555146	0.974408
295	H	0.130937	0.616479	0.955283
296	H	0.031551	0.482419	0.732419
297	H	0.124486	0.539715	0.743122
298	H	0.86812	0.382891	0.710795
299	H	0.874584	0.459633	0.92294
300	H	0.967514	0.516929	0.93365
301	C	0.196241	0.621636	0.021312
302	H	0.204051	0.662504	0.018785
303	H	0.214993	0.614131	0.992754
304	C	0.802824	0.377723	0.644756
305	H	0.784075	0.385245	0.673312
306	H	0.795003	0.336853	0.647298
