data_C162H90N36_2018-02-15_10:42:32
#******************************************
#
# CIF file created by Zeo++
# Zeo++ is an open source package to
# analyze microporous materials
#
#*******************************************

_cell_length_a		29.3223   
_cell_length_b		29.3224   
_cell_length_c		29.8818   
_cell_angle_alpha		90   
_cell_angle_beta		90   
_cell_angle_gamma		120   

_symmetry_space_group_name_H-M		'P1'
_symmetry_Int_Tables_number		1
_symmetry_cell_setting		Monoclinic

loop_
_symmetry_equiv_pos_as_xyz
'+x,+y,+z'

loop_
_atom_site_label
_atom_site_type_symbol
_atom_site_fract_x
_atom_site_fract_y
_atom_site_fract_z
1	C	0.030653	0.515815	0.045757
2	N	0.02877	0.514886	0.299554
3	C	0.030653	0.515815	0.37909
4	N	0.02877	0.514886	0.632887
5	C	0.030653	0.515815	0.712424
6	N	0.02877	0.514886	0.96622
7	H	0.050736	0.525853	0.075451
8	H	0.050736	0.525853	0.408784
9	H	0.050736	0.525853	0.742117
10	C	0.057656	0.529322	0.004522
11	C	0.057656	0.529322	0.337854
12	C	0.057656	0.529322	0.671188
13	C	0.363505	0.723053	0.000448
14	N	0.389009	0.694999	0.000478
15	C	0.363504	0.641439	0.000448
16	N	0.309946	0.615937	0.000478
17	C	0.281892	0.641439	0.000448
18	N	0.309946	0.694999	0.000478
19	C	0.391637	0.613311	0.000736
20	C	0.447496	0.64016	0.001044
21	C	0.475293	0.612531	0.001874
22	C	0.447929	0.557014	0.00235
23	C	0.392415	0.529653	0.001874
24	C	0.364787	0.557451	0.001041
25	C	0.391635	0.779315	0.000733
26	C	0.447495	0.808326	0.001037
27	C	0.475293	0.863752	0.001864
28	C	0.44793	0.891904	0.002343
29	C	0.392414	0.863752	0.001871
30	C	0.364786	0.808326	0.001041
31	C	0.225629	0.613311	0.000733
32	C	0.196619	0.64016	0.001041
33	C	0.141193	0.612531	0.001861
34	C	0.113039	0.557014	0.002336
35	C	0.141193	0.529653	0.001864
36	C	0.196619	0.557451	0.001037
37	H	0.515607	0.883335	0.002452
38	H	0.468878	0.789451	0.000944
39	H	0.371684	0.883335	0.00245
40	H	0.324527	0.789447	0.00094
41	H	0.215495	0.680417	0.000937
42	H	0.121608	0.63326	0.002444
43	H	0.215494	0.536068	0.000944
44	H	0.121607	0.489336	0.002452
45	H	0.324529	0.536068	0.000944
46	H	0.371684	0.489336	0.002454
47	H	0.515608	0.63326	0.002449
48	H	0.468878	0.680417	0.00094
49	C	0.642428	0.280903	0.000448
50	N	0.616925	0.308956	0.000478
51	C	0.642429	0.362514	0.000448
52	N	0.695986	0.388019	0.000478
53	C	0.724039	0.362514	0.000452
54	N	0.695988	0.308957	0.000478
55	C	0.614298	0.390646	0.000733
56	C	0.558438	0.363796	0.001034
57	C	0.53064	0.391425	0.001867
58	C	0.558003	0.446941	0.002335
59	C	0.613517	0.474301	0.001861
60	C	0.641146	0.446503	0.001034
61	C	0.614296	0.224639	0.000736
62	C	0.558437	0.19563	0.001044
63	C	0.530643	0.140204	0.001871
64	C	0.558002	0.112051	0.002339
65	C	0.613518	0.140205	0.001871
66	C	0.641149	0.19563	0.001037
67	C	0.780305	0.390647	0.000733
68	C	0.809315	0.363796	0.001044
69	C	0.86474	0.391425	0.001874
70	C	0.892893	0.446941	0.002348
71	C	0.864739	0.474301	0.001861
72	C	0.809314	0.446507	0.001037
73	H	0.490327	0.120619	0.002445
74	H	0.537056	0.214505	0.00094
75	H	0.634249	0.12062	0.00245
76	H	0.681407	0.214506	0.000944
77	H	0.790438	0.323539	0.000944
78	H	0.884325	0.370695	0.002455
79	H	0.790439	0.467887	0.00094
80	H	0.884324	0.514618	0.002452
81	H	0.681406	0.467887	0.00094
82	H	0.634248	0.514618	0.002443
83	H	0.490325	0.370695	0.002449
84	H	0.537054	0.323539	0.000944
85	C	0.530312	0.474632	0.004522
86	C	0.516809	0.488131	0.045757
87	C	0.489123	0.515815	0.045761
88	C	0.475621	0.529322	0.004529
89	N	0.490064	0.514886	0.299558
90	H	0.479084	0.525853	0.075456
91	H	0.526849	0.47809	0.07545
92	N	0.515869	0.489077	0.299554
93	C	0.530314	0.056669	0.004523
94	C	0.516808	0.029664	0.045757
95	C	0.489123	0.974294	0.045758
96	C	0.475622	0.947288	0.004525
97	N	0.490064	0.976168	0.299555
98	H	0.479082	0.954214	0.075453
99	H	0.526848	0.049744	0.075451
100	N	0.515871	0.027783	0.299554
101	C	0.948274	0.474632	0.004528
102	C	0.975285	0.488131	0.04576
103	H	0.955207	0.47809	0.075455
104	N	0.977158	0.489081	0.299557
105	C	0.363505	0.723053	0.333781
106	N	0.389009	0.694999	0.333812
107	C	0.363504	0.641439	0.333783
108	N	0.309946	0.615937	0.333811
109	C	0.281892	0.641439	0.33378
110	N	0.309946	0.694999	0.333811
111	C	0.391637	0.613311	0.334069
112	C	0.447496	0.64016	0.334376
113	C	0.475293	0.612531	0.335207
114	C	0.447929	0.557014	0.335683
115	C	0.392415	0.529653	0.335207
116	C	0.364787	0.557451	0.334374
117	C	0.391635	0.779315	0.334065
118	C	0.447495	0.808326	0.334369
119	C	0.475293	0.863752	0.335197
120	C	0.44793	0.891904	0.335676
121	C	0.392414	0.863752	0.335204
122	C	0.364786	0.808326	0.334374
123	C	0.225629	0.613311	0.334066
124	C	0.196619	0.64016	0.334372
125	C	0.141193	0.612531	0.335194
126	C	0.113039	0.557014	0.335669
127	C	0.141193	0.529653	0.335197
128	C	0.196619	0.557451	0.334369
129	H	0.515607	0.883335	0.335786
130	H	0.468878	0.789451	0.334276
131	H	0.371684	0.883335	0.335783
132	H	0.324527	0.789447	0.334273
133	H	0.215495	0.680417	0.334269
134	H	0.121608	0.63326	0.335776
135	H	0.215494	0.536068	0.334278
136	H	0.121607	0.489336	0.335786
137	H	0.324529	0.536068	0.334276
138	H	0.371684	0.489336	0.335786
139	H	0.515608	0.63326	0.335783
140	H	0.468878	0.680417	0.334272
141	C	0.642428	0.280903	0.333782
142	N	0.616925	0.308956	0.333812
143	C	0.642429	0.362514	0.333782
144	N	0.695986	0.388019	0.333812
145	C	0.724039	0.362514	0.333783
146	N	0.695988	0.308957	0.333813
147	C	0.614298	0.390646	0.334066
148	C	0.558438	0.363796	0.334369
149	C	0.53064	0.391425	0.335201
150	C	0.558003	0.446941	0.335669
151	C	0.613517	0.474301	0.335194
152	C	0.641146	0.446503	0.334369
153	C	0.614296	0.224639	0.334068
154	C	0.558437	0.19563	0.334377
155	C	0.530643	0.140204	0.335204
156	C	0.558002	0.112051	0.335673
157	C	0.613518	0.140205	0.335204
158	C	0.641149	0.19563	0.334371
159	C	0.780305	0.390647	0.334067
160	C	0.809315	0.363796	0.334377
161	C	0.86474	0.391425	0.335207
162	C	0.892893	0.446941	0.335683
163	C	0.864739	0.474301	0.335194
164	C	0.809314	0.446507	0.33437
165	H	0.490327	0.120619	0.33578
166	H	0.537056	0.214505	0.334273
167	H	0.634249	0.12062	0.335783
168	H	0.681407	0.214506	0.334278
169	H	0.790438	0.323539	0.334276
170	H	0.884325	0.370695	0.33579
171	H	0.790439	0.467887	0.334274
172	H	0.884324	0.514618	0.335786
173	H	0.681406	0.467887	0.334272
174	H	0.634248	0.514618	0.335776
175	H	0.490325	0.370695	0.335783
176	H	0.537054	0.323539	0.334277
177	C	0.530312	0.474632	0.337854
178	C	0.516809	0.488131	0.37909
179	C	0.489123	0.515815	0.379094
180	C	0.475621	0.529322	0.337861
181	N	0.490064	0.514886	0.63289
182	H	0.479084	0.525853	0.408791
183	H	0.526849	0.47809	0.408784
184	N	0.515869	0.489077	0.632887
185	C	0.530314	0.056669	0.337858
186	C	0.516808	0.029664	0.37909
187	C	0.489123	0.974294	0.37909
188	C	0.475622	0.947288	0.337858
189	N	0.490064	0.976168	0.632887
190	H	0.479082	0.954214	0.408787
191	H	0.526848	0.049744	0.408784
192	N	0.515871	0.027783	0.632887
193	C	0.948274	0.474632	0.337861
194	C	0.975285	0.488131	0.379094
195	H	0.955207	0.47809	0.408787
196	N	0.977158	0.489081	0.63289
197	C	0.363505	0.723053	0.667115
198	N	0.389009	0.694999	0.667145
199	C	0.363504	0.641439	0.667115
200	N	0.309946	0.615937	0.667145
201	C	0.281892	0.641439	0.667115
202	N	0.309946	0.694999	0.667145
203	C	0.391637	0.613311	0.667403
204	C	0.447496	0.64016	0.667711
205	C	0.475293	0.612531	0.668541
206	C	0.447929	0.557014	0.669016
207	C	0.392415	0.529653	0.668541
208	C	0.364787	0.557451	0.667707
209	C	0.391635	0.779315	0.667399
210	C	0.447495	0.808326	0.667704
211	C	0.475293	0.863752	0.668531
212	C	0.44793	0.891904	0.669009
213	C	0.392414	0.863752	0.668537
214	C	0.364786	0.808326	0.667707
215	C	0.225629	0.613311	0.667399
216	C	0.196619	0.64016	0.667704
217	C	0.141193	0.612531	0.668527
218	C	0.113039	0.557014	0.669002
219	C	0.141193	0.529653	0.668531
220	C	0.196619	0.557451	0.667704
221	H	0.515607	0.883335	0.66912
222	H	0.468878	0.789451	0.66761
223	H	0.371684	0.883335	0.669116
224	H	0.324527	0.789447	0.667607
225	H	0.215495	0.680417	0.667604
226	H	0.121608	0.63326	0.66911
227	H	0.215494	0.536068	0.66761
228	H	0.121607	0.489336	0.66912
229	H	0.324529	0.536068	0.66761
230	H	0.371684	0.489336	0.66912
231	H	0.515608	0.63326	0.669116
232	H	0.468878	0.680417	0.667607
233	C	0.642428	0.280903	0.667115
234	N	0.616925	0.308956	0.667145
235	C	0.642429	0.362514	0.667115
236	N	0.695986	0.388019	0.667145
237	C	0.724039	0.362514	0.667118
238	N	0.695988	0.308957	0.667145
239	C	0.614298	0.390646	0.667399
240	C	0.558438	0.363796	0.667701
241	C	0.53064	0.391425	0.668534
242	C	0.558003	0.446941	0.669002
243	C	0.613517	0.474301	0.668527
244	C	0.641146	0.446503	0.667701
245	C	0.614296	0.224639	0.667403
246	C	0.558437	0.19563	0.667711
247	C	0.530643	0.140204	0.668537
248	C	0.558002	0.112051	0.669006
249	C	0.613518	0.140205	0.668537
250	C	0.641149	0.19563	0.667704
251	C	0.780305	0.390647	0.667399
252	C	0.809315	0.363796	0.667711
253	C	0.86474	0.391425	0.668541
254	C	0.892893	0.446941	0.669016
255	C	0.864739	0.474301	0.668527
256	C	0.809314	0.446507	0.667704
257	H	0.490327	0.120619	0.669113
258	H	0.537056	0.214505	0.667607
259	H	0.634249	0.12062	0.669116
260	H	0.681407	0.214506	0.66761
261	H	0.790438	0.323539	0.66761
262	H	0.884325	0.370695	0.669123
263	H	0.790439	0.467887	0.667607
264	H	0.884324	0.514618	0.66912
265	H	0.681406	0.467887	0.667607
266	H	0.634248	0.514618	0.66911
267	H	0.490325	0.370695	0.669116
268	H	0.537054	0.323539	0.66761
269	C	0.530312	0.474632	0.671188
270	C	0.516809	0.488131	0.712424
271	C	0.489123	0.515815	0.712427
272	C	0.475621	0.529322	0.671194
273	N	0.490064	0.514886	0.966223
274	H	0.479084	0.525853	0.742124
275	H	0.526849	0.47809	0.742117
276	N	0.515869	0.489077	0.96622
277	C	0.530314	0.056669	0.671191
278	C	0.516808	0.029664	0.712424
279	C	0.489123	0.974294	0.712424
280	C	0.475622	0.947288	0.671191
281	N	0.490064	0.976168	0.96622
282	H	0.479082	0.954214	0.742121
283	H	0.526848	0.049744	0.742117
284	N	0.515871	0.027783	0.96622
285	C	0.948274	0.474632	0.671194
286	C	0.975285	0.488131	0.712427
287	H	0.955207	0.47809	0.742121
288	N	0.977158	0.489081	0.966223
