data_C198H108N18O36_2018-02-15_10:41:38
#******************************************
#
# CIF file created by Zeo++
# Zeo++ is an open source package to
# analyze microporous materials
#
#*******************************************

_cell_length_a		29.7739   
_cell_length_b		29.7738   
_cell_length_c		29.6322   
_cell_angle_alpha		90   
_cell_angle_beta		90   
_cell_angle_gamma		120   

_symmetry_space_group_name_H-M		'P1'
_symmetry_Int_Tables_number		1
_symmetry_cell_setting		Monoclinic

loop_
_symmetry_equiv_pos_as_xyz
'+x,+y,+z'

loop_
_atom_site_label
_atom_site_type_symbol
_atom_site_fract_x
_atom_site_fract_y
_atom_site_fract_z
1	C	0.064004	0.532994	0.336093
2	N	0.038917	0.513444	0.042548
3	C	0.032064	0.523701	0.297576
4	C	0.050486	0.537613	0.25384
5	O	0.029271	0.554173	0.229008
6	O	0.072682	0.51762	0.234034
7	H	0.086058	0.500292	0.247298
8	C	0.064004	0.532994	0.669426
9	N	0.038917	0.513444	0.375881
10	C	0.032064	0.523701	0.630911
11	C	0.050486	0.537613	0.587174
12	O	0.029271	0.554173	0.56234
13	O	0.072682	0.51762	0.567368
14	H	0.086058	0.500292	0.580631
15	C	0.064004	0.532994	0.002759
16	N	0.038917	0.513444	0.709217
17	C	0.032064	0.523701	0.964243
18	C	0.050486	0.537613	0.920507
19	O	0.029271	0.554173	0.895676
20	O	0.072682	0.51762	0.900701
21	H	0.086058	0.500292	0.913967
22	C	0.147315	0.544733	0.031104
23	C	0.119525	0.561355	0.003572
24	C	0.148766	0.60758	0.978566
25	H	0.127959	0.511741	0.050137
26	H	0.13061	0.622469	0.959536
27	C	0.147315	0.544733	0.364437
28	C	0.119525	0.561355	0.336904
29	C	0.148766	0.60758	0.311898
30	H	0.127959	0.511741	0.383471
31	H	0.13061	0.622469	0.292869
32	C	0.147315	0.544733	0.69777
33	C	0.119525	0.561355	0.670236
34	C	0.148766	0.60758	0.645233
35	H	0.127959	0.511741	0.716804
36	H	0.13061	0.622469	0.626203
37	C	0.287065	0.645447	0.00745
38	C	0.315236	0.618672	0.007406
39	C	0.370164	0.64478	0.007378
40	C	0.396942	0.699719	0.007492
41	C	0.370837	0.728542	0.007529
42	C	0.315893	0.700375	0.007575
43	C	0.39779	0.616651	0.006519
44	C	0.38084	0.57178	0.97947
45	C	0.408146	0.544493	0.978275
46	C	0.45418	0.561278	0.003522
47	C	0.470668	0.605532	0.031229
48	C	0.443197	0.632661	0.032598
49	C	0.231303	0.617815	0.00662
50	C	0.201914	0.572234	0.032495
51	C	0.20336	0.634914	0.979774
52	C	0.398964	0.784296	0.00675
53	C	0.38293	0.813654	0.032855
54	C	0.410014	0.868256	0.031494
55	C	0.454249	0.896059	0.003771
56	C	0.471081	0.866848	0.978528
57	C	0.443849	0.812258	0.979723
58	H	0.220032	0.558788	0.053314
59	H	0.222562	0.667347	0.960086
60	H	0.351465	0.795508	0.05378
61	H	0.396498	0.887604	0.050688
62	H	0.456942	0.793064	0.959863
63	H	0.503994	0.885033	0.959337
64	H	0.456521	0.664097	0.053553
65	H	0.503517	0.619005	0.050437
66	H	0.39338	0.511574	0.95909
67	H	0.348529	0.558691	0.95964
68	H	0.295167	0.578997	0.007134
69	H	0.2963	0.72046	0.007433
70	H	0.436619	0.71932	0.007287
71	C	0.731585	0.366439	0.005833
72	C	0.703979	0.393788	0.005894
73	C	0.649075	0.368289	0.005918
74	C	0.621714	0.313339	0.00586
75	C	0.647214	0.28394	0.005826
76	C	0.702164	0.311532	0.005739
77	C	0.62203	0.397003	0.006594
78	C	0.639519	0.442138	0.0334
79	C	0.612718	0.469937	0.03444
80	C	0.566706	0.453455	0.009248
81	C	0.549704	0.40896	0.981755
82	C	0.576664	0.381323	0.980543
83	C	0.787359	0.393463	0.006487
84	C	0.817082	0.439098	0.980763
85	C	0.871683	0.46602	0.981971
86	C	0.899156	0.448716	0.009146
87	C	0.869598	0.402429	0.033983
88	C	0.814999	0.375687	0.032962
89	C	0.618486	0.228182	0.006527
90	C	0.634121	0.198453	0.980486
91	C	0.606474	0.143857	0.981758
92	C	0.562025	0.11641	0.00931
93	C	0.54559	0.145984	0.0345
94	C	0.573393	0.200581	0.033391
95	H	0.891283	0.499121	0.963106
96	H	0.799215	0.453032	0.960184
97	H	0.887521	0.387116	0.052784
98	H	0.795579	0.3432	0.05255
99	H	0.665689	0.216321	0.959644
100	H	0.619733	0.124241	0.96262
101	H	0.560557	0.220037	0.053201
102	H	0.512573	0.128073	0.053584
103	H	0.562966	0.349722	0.959742
104	H	0.516819	0.395658	0.962624
105	H	0.62781	0.502976	0.053495
106	H	0.671824	0.455018	0.053202
107	H	0.724455	0.433459	0.006123
108	H	0.721325	0.291024	0.00583
109	H	0.582045	0.29416	0.006056
110	C	0.482484	0.534064	0.336093
111	N	0.501536	0.528064	0.042646
112	C	0.529075	0.50329	0.048543
113	C	0.538737	0.480998	0.009975
114	N	0.51975	0.48706	0.303412
115	C	0.492237	0.511861	0.297511
116	C	0.478734	0.516872	0.253742
117	C	0.54277	0.498567	0.092308
118	O	0.462317	0.479067	0.228943
119	O	0.499299	0.559106	0.234062
120	H	0.516563	0.589721	0.247482
121	O	0.558981	0.536143	0.117345
122	O	0.523011	0.456247	0.111876
123	H	0.505881	0.425625	0.098447
124	C	0.481378	0.951572	0.336293
125	N	0.487382	0.976664	0.042825
126	C	0.512111	0.028988	0.048665
127	C	0.534444	0.060897	0.010079
128	N	0.528363	0.035805	0.303539
129	C	0.503524	0.98349	0.29768
130	C	0.498584	0.965018	0.253916
131	C	0.516908	0.047436	0.092449
132	O	0.536072	0.986282	0.228776
133	O	0.456184	0.94271	0.234456
134	H	0.425619	0.929287	0.247982
135	O	0.479053	0.026437	0.117195
136	O	0.559287	0.069857	0.111922
137	H	0.589874	0.083083	0.098466
138	C	0.9866	0.485811	0.048403
139	C	0.954669	0.476655	0.009902
140	N	0.979749	0.496131	0.303434
141	C	0.968167	0.47157	0.092103
142	O	0.989494	0.45501	0.1168
143	O	0.945526	0.491008	0.112045
144	H	0.932043	0.508309	0.098914
145	C	0.287065	0.645447	0.340784
146	C	0.315236	0.618672	0.34074
147	C	0.370164	0.64478	0.34071
148	C	0.396942	0.699719	0.340825
149	C	0.370837	0.728542	0.340862
150	C	0.315893	0.700375	0.340909
151	C	0.39779	0.616651	0.339853
152	C	0.38084	0.57178	0.312802
153	C	0.408146	0.544493	0.311608
154	C	0.45418	0.561278	0.336854
155	C	0.470668	0.605532	0.364562
156	C	0.443197	0.632661	0.365932
157	C	0.231303	0.617815	0.339954
158	C	0.201914	0.572234	0.365828
159	C	0.20336	0.634914	0.313105
160	C	0.398964	0.784296	0.340086
161	C	0.38293	0.813654	0.366189
162	C	0.410014	0.868256	0.364829
163	C	0.454249	0.896059	0.337104
164	C	0.471081	0.866848	0.31186
165	C	0.443849	0.812258	0.313056
166	H	0.220032	0.558788	0.386646
167	H	0.222562	0.667347	0.293419
168	H	0.351465	0.795508	0.387112
169	H	0.396498	0.887604	0.384021
170	H	0.456942	0.793064	0.293195
171	H	0.503994	0.885033	0.292667
172	H	0.456521	0.664097	0.386886
173	H	0.503517	0.619005	0.383771
174	H	0.39338	0.511574	0.292422
175	H	0.348529	0.558691	0.292974
176	H	0.295167	0.578997	0.340467
177	H	0.2963	0.72046	0.340767
178	H	0.436619	0.71932	0.340619
179	C	0.731585	0.366439	0.339164
180	C	0.703979	0.393788	0.339228
181	C	0.649075	0.368289	0.339252
182	C	0.621714	0.313339	0.339195
183	C	0.647214	0.28394	0.339158
184	C	0.702164	0.311532	0.33907
185	C	0.62203	0.397003	0.339927
186	C	0.639519	0.442138	0.366732
187	C	0.612718	0.469937	0.367775
188	C	0.566706	0.453455	0.342583
189	C	0.549704	0.40896	0.315088
190	C	0.576664	0.381323	0.313877
191	C	0.787359	0.393463	0.339819
192	C	0.817082	0.439098	0.314094
193	C	0.871683	0.46602	0.315304
194	C	0.899156	0.448716	0.342482
195	C	0.869598	0.402429	0.367316
196	C	0.814999	0.375687	0.366297
197	C	0.618486	0.228182	0.339859
198	C	0.634121	0.198453	0.313819
199	C	0.606474	0.143857	0.315089
200	C	0.562025	0.11641	0.342644
201	C	0.54559	0.145984	0.367832
202	C	0.573393	0.200581	0.366725
203	H	0.891283	0.499121	0.296439
204	H	0.799215	0.453032	0.293515
205	H	0.887521	0.387116	0.386116
206	H	0.795579	0.3432	0.385884
207	H	0.665689	0.216321	0.292977
208	H	0.619733	0.124241	0.295951
209	H	0.560557	0.220037	0.386535
210	H	0.512573	0.128073	0.386916
211	H	0.562966	0.349722	0.293075
212	H	0.516819	0.395658	0.295955
213	H	0.62781	0.502976	0.386829
214	H	0.671824	0.455018	0.386535
215	H	0.724455	0.433459	0.339458
216	H	0.721325	0.291024	0.339164
217	H	0.582045	0.29416	0.33939
218	C	0.482484	0.534064	0.669426
219	N	0.501536	0.528064	0.375979
220	C	0.529075	0.50329	0.381878
221	C	0.538737	0.480998	0.343308
222	N	0.51975	0.48706	0.636745
223	C	0.492237	0.511861	0.630846
224	C	0.478734	0.516872	0.587077
225	C	0.54277	0.498567	0.425641
226	O	0.462317	0.479067	0.562276
227	O	0.499299	0.559106	0.567395
228	H	0.516563	0.589721	0.580817
229	O	0.558981	0.536143	0.450678
230	O	0.523011	0.456247	0.445211
231	H	0.505881	0.425625	0.431783
232	C	0.481378	0.951572	0.669629
233	N	0.487382	0.976664	0.376158
234	C	0.512111	0.028988	0.381999
235	C	0.534444	0.060897	0.343413
236	N	0.528363	0.035805	0.636874
237	C	0.503524	0.98349	0.631015
238	C	0.498584	0.965018	0.587249
239	C	0.516908	0.047436	0.425783
240	O	0.536072	0.986282	0.562111
241	O	0.456184	0.94271	0.56779
242	H	0.425619	0.929287	0.581316
243	O	0.479053	0.026437	0.450529
244	O	0.559287	0.069857	0.445255
245	H	0.589874	0.083083	0.4318
246	C	0.9866	0.485811	0.381736
247	C	0.954669	0.476655	0.343238
248	N	0.979749	0.496131	0.636769
249	C	0.968167	0.47157	0.425439
250	O	0.989494	0.45501	0.450135
251	O	0.945526	0.491008	0.44538
252	H	0.932043	0.508309	0.432249
253	C	0.287065	0.645447	0.674117
254	C	0.315236	0.618672	0.674073
255	C	0.370164	0.64478	0.674046
256	C	0.396942	0.699719	0.674161
257	C	0.370837	0.728542	0.674198
258	C	0.315893	0.700375	0.674242
259	C	0.39779	0.616651	0.673185
260	C	0.38084	0.57178	0.646137
261	C	0.408146	0.544493	0.644943
262	C	0.45418	0.561278	0.670189
263	C	0.470668	0.605532	0.697898
264	C	0.443197	0.632661	0.699265
265	C	0.231303	0.617815	0.673287
266	C	0.201914	0.572234	0.699164
267	C	0.20336	0.634914	0.646438
268	C	0.398964	0.784296	0.673418
269	C	0.38293	0.813654	0.699522
270	C	0.410014	0.868256	0.698162
271	C	0.454249	0.896059	0.670438
272	C	0.471081	0.866848	0.645196
273	C	0.443849	0.812258	0.64639
274	H	0.220032	0.558788	0.719982
275	H	0.222562	0.667347	0.626753
276	H	0.351465	0.795508	0.720448
277	H	0.396498	0.887604	0.717357
278	H	0.456942	0.793064	0.62653
279	H	0.503994	0.885033	0.626
280	H	0.456521	0.664097	0.720222
281	H	0.503517	0.619005	0.717104
282	H	0.39338	0.511574	0.625757
283	H	0.348529	0.558691	0.626308
284	H	0.295167	0.578997	0.673803
285	H	0.2963	0.72046	0.6741
286	H	0.436619	0.71932	0.673955
287	C	0.731585	0.366439	0.6725
288	C	0.703979	0.393788	0.672561
289	C	0.649075	0.368289	0.672585
290	C	0.621714	0.313339	0.672527
291	C	0.647214	0.28394	0.67249
292	C	0.702164	0.311532	0.672406
293	C	0.62203	0.397003	0.673263
294	C	0.639519	0.442138	0.700068
295	C	0.612718	0.469937	0.701108
296	C	0.566706	0.453455	0.675916
297	C	0.549704	0.40896	0.648422
298	C	0.576664	0.381323	0.64721
299	C	0.787359	0.393463	0.673155
300	C	0.817082	0.439098	0.647426
301	C	0.871683	0.46602	0.648638
302	C	0.899156	0.448716	0.675814
303	C	0.869598	0.402429	0.700649
304	C	0.814999	0.375687	0.69963
305	C	0.618486	0.228182	0.673196
306	C	0.634121	0.198453	0.647153
307	C	0.606474	0.143857	0.648422
308	C	0.562025	0.11641	0.675976
309	C	0.54559	0.145984	0.701169
310	C	0.573393	0.200581	0.700058
311	H	0.891283	0.499121	0.629773
312	H	0.799215	0.453032	0.626847
313	H	0.887521	0.387116	0.719453
314	H	0.795579	0.3432	0.719216
315	H	0.665689	0.216321	0.626311
316	H	0.619733	0.124241	0.629284
317	H	0.560557	0.220037	0.719868
318	H	0.512573	0.128073	0.720252
319	H	0.562966	0.349722	0.626409
320	H	0.516819	0.395658	0.629291
321	H	0.62781	0.502976	0.720161
322	H	0.671824	0.455018	0.719871
323	H	0.724455	0.433459	0.672791
324	H	0.721325	0.291024	0.672497
325	H	0.582045	0.29416	0.672723
326	C	0.482484	0.534064	0.002759
327	N	0.501536	0.528064	0.709315
328	C	0.529075	0.50329	0.715211
329	C	0.538737	0.480998	0.676641
330	N	0.51975	0.48706	0.970078
331	C	0.492237	0.511861	0.964179
332	C	0.478734	0.516872	0.920409
333	C	0.54277	0.498567	0.758977
334	O	0.462317	0.479067	0.895612
335	O	0.499299	0.559106	0.900728
336	H	0.516563	0.589721	0.914149
337	O	0.558981	0.536143	0.784014
338	O	0.523011	0.456247	0.778544
339	H	0.505881	0.425625	0.765116
340	C	0.481378	0.951572	0.002961
341	N	0.487382	0.976664	0.709494
342	C	0.512111	0.028988	0.715332
343	C	0.534444	0.060897	0.676746
344	N	0.528363	0.035805	0.970206
345	C	0.503524	0.98349	0.964348
346	C	0.498584	0.965018	0.920585
347	C	0.516908	0.047436	0.759116
348	O	0.536072	0.986282	0.895443
349	O	0.456184	0.94271	0.901123
350	H	0.425619	0.929287	0.914649
351	O	0.479053	0.026437	0.783862
352	O	0.559287	0.069857	0.778591
353	H	0.589874	0.083083	0.765133
354	C	0.9866	0.485811	0.715072
355	C	0.954669	0.476655	0.67657
356	N	0.979749	0.496131	0.970102
357	C	0.968167	0.47157	0.758771
358	O	0.989494	0.45501	0.783467
359	O	0.945526	0.491008	0.778712
360	H	0.932043	0.508309	0.765581
