data_C180H117N27_2018-02-15_10:41:43
#******************************************
#
# CIF file created by Zeo++
# Zeo++ is an open source package to
# analyze microporous materials
#
#*******************************************

_cell_length_a		29.9093   
_cell_length_b		29.9093   
_cell_length_c		29.7812   
_cell_angle_alpha		90   
_cell_angle_beta		90   
_cell_angle_gamma		120   

_symmetry_space_group_name_H-M		'P1'
_symmetry_Int_Tables_number		1
_symmetry_cell_setting		Monoclinic

loop_
_symmetry_equiv_pos_as_xyz
'+x,+y,+z'

loop_
_atom_site_label
_atom_site_type_symbol
_atom_site_fract_x
_atom_site_fract_y
_atom_site_fract_z
1	C	0.032315	0.517076	0.049735
2	C	0.059128	0.530484	0.008094
3	N	0.03128	0.516562	0.302736
4	N	0.056735	0.529287	0.090141
5	H	0.037351	0.519593	0.118143
6	C	0.032315	0.517076	0.383068
7	C	0.059128	0.530484	0.341427
8	N	0.03128	0.516562	0.63607
9	N	0.056735	0.529287	0.423473
10	H	0.037351	0.519593	0.451477
11	C	0.032315	0.517076	0.716399
12	C	0.059128	0.530484	0.674759
13	N	0.03128	0.516562	0.969402
14	N	0.056735	0.529287	0.756808
15	H	0.037351	0.519593	0.784808
16	H	0.094152	0.547996	0.092419
17	H	0.094152	0.547996	0.425752
18	H	0.094152	0.547996	0.759084
19	C	0.113458	0.557647	0.004476
20	C	0.113458	0.557647	0.337808
21	C	0.113458	0.557647	0.671143
22	C	0.282446	0.642142	0.00202
23	C	0.312232	0.617117	0.001909
24	C	0.367044	0.642142	0.001973
25	C	0.392067	0.696952	0.001932
26	C	0.367045	0.726741	0.00203
27	C	0.312233	0.696952	0.00208
28	C	0.3955	0.613685	0.002302
29	C	0.370362	0.558566	0.002705
30	C	0.397298	0.531159	0.00382
31	C	0.451536	0.557647	0.004471
32	C	0.478022	0.611882	0.003815
33	C	0.450614	0.638818	0.002691
34	C	0.225533	0.613685	0.002339
35	C	0.195554	0.55857	0.002765
36	C	0.14121	0.531163	0.003858
37	C	0.141209	0.611886	0.003773
38	C	0.195552	0.638822	0.002651
39	C	0.3955	0.783651	0.002349
40	C	0.370365	0.813633	0.002661
41	C	0.397301	0.867976	0.003769
42	C	0.451537	0.895727	0.004464
43	C	0.478023	0.867976	0.00385
44	C	0.450615	0.813629	0.002758
45	H	0.122045	0.49163	0.004814
46	H	0.212068	0.536028	0.002752
47	H	0.12204	0.632251	0.004632
48	H	0.212063	0.677877	0.002453
49	H	0.331309	0.797121	0.00248
50	H	0.376934	0.887144	0.004641
51	H	0.473159	0.797117	0.002735
52	H	0.517555	0.887141	0.004797
53	H	0.473159	0.677877	0.002597
54	H	0.517556	0.632251	0.004722
55	H	0.376931	0.491626	0.00473
56	H	0.331305	0.536024	0.002614
57	H	0.292886	0.578426	0.001691
58	H	0.292888	0.716298	0.002167
59	H	0.430759	0.716298	0.001754
60	C	0.728577	0.365207	0.002221
61	C	0.698792	0.390233	0.002167
62	C	0.643978	0.365208	0.002204
63	C	0.618957	0.310398	0.002191
64	C	0.643978	0.28061	0.002228
65	C	0.698788	0.310397	0.002235
66	C	0.615524	0.393665	0.002392
67	C	0.640658	0.44878	0.002658
68	C	0.613716	0.476195	0.00341
69	C	0.559476	0.449711	0.003825
70	C	0.532996	0.395472	0.003416
71	C	0.560405	0.368531	0.002648
72	C	0.785486	0.393661	0.002402
73	C	0.815473	0.44878	0.002674
74	C	0.869825	0.476191	0.00342
75	C	0.897582	0.449711	0.003813
76	C	0.869827	0.395472	0.003386
77	C	0.815472	0.368529	0.002631
78	C	0.615522	0.223699	0.002412
79	C	0.640658	0.193715	0.002644
80	C	0.613715	0.139361	0.003403
81	C	0.559474	0.111603	0.003803
82	C	0.532995	0.139361	0.003403
83	C	0.560405	0.193715	0.002668
84	H	0.888997	0.515732	0.004124
85	H	0.798957	0.471323	0.002691
86	H	0.888997	0.3751	0.004045
87	H	0.79896	0.329472	0.00256
88	H	0.679714	0.210227	0.002604
89	H	0.634084	0.120191	0.004067
90	H	0.537862	0.210228	0.002661
91	H	0.493456	0.120192	0.004094
92	H	0.537861	0.329474	0.002614
93	H	0.493455	0.375104	0.004085
94	H	0.634088	0.515736	0.004088
95	H	0.679715	0.471327	0.002627
96	H	0.718138	0.428925	0.00203
97	H	0.718136	0.291051	0.002214
98	H	0.580263	0.291052	0.002094
99	C	0.532325	0.476863	0.006595
100	C	0.519409	0.489777	0.048243
101	C	0.492106	0.517076	0.049737
102	C	0.478704	0.530484	0.008094
103	N	0.492631	0.516558	0.302738
104	N	0.517884	0.491309	0.30193
105	N	0.479894	0.529287	0.090141
106	H	0.489583	0.519597	0.118145
107	H	0.461184	0.547996	0.092417
108	H	0.529882	0.479303	0.077415
109	C	0.532323	0.057301	0.006579
110	C	0.519416	0.031473	0.048229
111	C	0.492114	0.97687	0.049725
112	C	0.478702	0.950058	0.008084
113	N	0.492621	0.977909	0.302727
114	N	0.517871	0.028411	0.301916
115	N	0.479907	0.952452	0.09013
116	H	0.489598	0.971832	0.118133
117	H	0.461192	0.91503	0.092408
118	H	0.529895	0.052424	0.0774
119	C	0.951888	0.476863	0.006588
120	C	0.977711	0.489773	0.048238
121	N	0.980776	0.491309	0.301925
122	H	0.956758	0.479295	0.077408
123	C	0.282446	0.642142	0.335356
124	C	0.312232	0.617117	0.335243
125	C	0.367044	0.642142	0.335307
126	C	0.392067	0.696952	0.335266
127	C	0.367045	0.726741	0.335364
128	C	0.312233	0.696952	0.335413
129	C	0.3955	0.613685	0.335635
130	C	0.370362	0.558566	0.336038
131	C	0.397298	0.531159	0.337153
132	C	0.451536	0.557647	0.337804
133	C	0.478022	0.611882	0.337146
134	C	0.450614	0.638818	0.336025
135	C	0.225533	0.613685	0.335672
136	C	0.195554	0.55857	0.336098
137	C	0.14121	0.531163	0.33719
138	C	0.141209	0.611886	0.337106
139	C	0.195552	0.638822	0.335984
140	C	0.3955	0.783651	0.335684
141	C	0.370365	0.813633	0.335994
142	C	0.397301	0.867976	0.337102
143	C	0.451537	0.895727	0.337798
144	C	0.478023	0.867976	0.337183
145	C	0.450615	0.813629	0.336095
146	H	0.122045	0.49163	0.338147
147	H	0.212068	0.536028	0.336085
148	H	0.12204	0.632251	0.337965
149	H	0.212063	0.677877	0.335786
150	H	0.331309	0.797121	0.335816
151	H	0.376934	0.887144	0.337975
152	H	0.473159	0.797117	0.336068
153	H	0.517555	0.887141	0.33813
154	H	0.473159	0.677877	0.335931
155	H	0.517556	0.632251	0.338056
156	H	0.376931	0.491626	0.338063
157	H	0.331305	0.536024	0.335951
158	H	0.292886	0.578426	0.335024
159	H	0.292888	0.716298	0.335502
160	H	0.430759	0.716298	0.335088
161	C	0.728577	0.365207	0.335555
162	C	0.698792	0.390233	0.335501
163	C	0.643978	0.365208	0.335539
164	C	0.618957	0.310398	0.335525
165	C	0.643978	0.28061	0.335564
166	C	0.698788	0.310397	0.335569
167	C	0.615524	0.393665	0.335727
168	C	0.640658	0.44878	0.335991
169	C	0.613716	0.476195	0.336743
170	C	0.559476	0.449711	0.337156
171	C	0.532996	0.395472	0.33675
172	C	0.560405	0.368531	0.335984
173	C	0.785486	0.393661	0.335739
174	C	0.815473	0.44878	0.336011
175	C	0.869825	0.476191	0.336753
176	C	0.897582	0.449711	0.337146
177	C	0.869827	0.395472	0.33672
178	C	0.815472	0.368529	0.335964
179	C	0.615522	0.223699	0.335749
180	C	0.640658	0.193715	0.335978
181	C	0.613715	0.139361	0.33674
182	C	0.559474	0.111603	0.337136
183	C	0.532995	0.139361	0.336736
184	C	0.560405	0.193715	0.336001
185	H	0.888997	0.515732	0.337458
186	H	0.798957	0.471323	0.336025
187	H	0.888997	0.3751	0.337378
188	H	0.79896	0.329472	0.335897
189	H	0.679714	0.210227	0.335941
190	H	0.634084	0.120191	0.337401
191	H	0.537862	0.210228	0.335994
192	H	0.493456	0.120192	0.337425
193	H	0.537861	0.329474	0.335947
194	H	0.493455	0.375104	0.337418
195	H	0.634088	0.515736	0.337421
196	H	0.679715	0.471327	0.335961
197	H	0.718138	0.428925	0.335363
198	H	0.718136	0.291051	0.335548
199	H	0.580263	0.291052	0.335427
200	C	0.532325	0.476863	0.33993
201	C	0.519409	0.489777	0.381577
202	C	0.492106	0.517076	0.383071
203	C	0.478704	0.530484	0.341427
204	N	0.492631	0.516558	0.63607
205	N	0.517884	0.491309	0.635264
206	N	0.479894	0.529287	0.423473
207	H	0.489583	0.519597	0.451477
208	H	0.461184	0.547996	0.425749
209	H	0.529882	0.479303	0.41075
210	C	0.532323	0.057301	0.339913
211	C	0.519416	0.031473	0.38156
212	C	0.492114	0.97687	0.383058
213	C	0.478702	0.950058	0.341417
214	N	0.492621	0.977909	0.63606
215	N	0.517871	0.028411	0.635247
216	N	0.479907	0.952452	0.423462
217	H	0.489598	0.971832	0.451467
218	H	0.461192	0.91503	0.425742
219	H	0.529895	0.052424	0.410733
220	C	0.951888	0.476863	0.33992
221	C	0.977711	0.489773	0.38157
222	N	0.980776	0.491309	0.635257
223	H	0.956758	0.479295	0.41074
224	C	0.282446	0.642142	0.668688
225	C	0.312232	0.617117	0.668574
226	C	0.367044	0.642142	0.668641
227	C	0.392067	0.696952	0.668601
228	C	0.367045	0.726741	0.668698
229	C	0.312233	0.696952	0.668745
230	C	0.3955	0.613685	0.668967
231	C	0.370362	0.558566	0.669373
232	C	0.397298	0.531159	0.670484
233	C	0.451536	0.557647	0.671136
234	C	0.478022	0.611882	0.670481
235	C	0.450614	0.638818	0.66936
236	C	0.225533	0.613685	0.669004
237	C	0.195554	0.55857	0.66943
238	C	0.14121	0.531163	0.670525
239	C	0.141209	0.611886	0.670437
240	C	0.195552	0.638822	0.669319
241	C	0.3955	0.783651	0.669017
242	C	0.370365	0.813633	0.669326
243	C	0.397301	0.867976	0.670434
244	C	0.451537	0.895727	0.671129
245	C	0.478023	0.867976	0.670515
246	C	0.450615	0.813629	0.669427
247	H	0.122045	0.49163	0.671478
248	H	0.212068	0.536028	0.669417
249	H	0.12204	0.632251	0.671297
250	H	0.212063	0.677877	0.669118
251	H	0.331309	0.797121	0.669148
252	H	0.376934	0.887144	0.671307
253	H	0.473159	0.797117	0.669403
254	H	0.517555	0.887141	0.671462
255	H	0.473159	0.677877	0.669266
256	H	0.517556	0.632251	0.671388
257	H	0.376931	0.491626	0.671394
258	H	0.331305	0.536024	0.669282
259	H	0.292886	0.578426	0.668356
260	H	0.292888	0.716298	0.668836
261	H	0.430759	0.716298	0.668419
262	C	0.728577	0.365207	0.668886
263	C	0.698792	0.390233	0.668836
264	C	0.643978	0.365208	0.668873
265	C	0.618957	0.310398	0.668856
266	C	0.643978	0.28061	0.668896
267	C	0.698788	0.310397	0.668903
268	C	0.615524	0.393665	0.669061
269	C	0.640658	0.44878	0.669323
270	C	0.613716	0.476195	0.670075
271	C	0.559476	0.449711	0.670491
272	C	0.532996	0.395472	0.670082
273	C	0.560405	0.368531	0.669316
274	C	0.785486	0.393661	0.669071
275	C	0.815473	0.44878	0.669343
276	C	0.869825	0.476191	0.670085
277	C	0.897582	0.449711	0.670478
278	C	0.869827	0.395472	0.670051
279	C	0.815472	0.368529	0.669299
280	C	0.615522	0.223699	0.669081
281	C	0.640658	0.193715	0.669313
282	C	0.613715	0.139361	0.670071
283	C	0.559474	0.111603	0.670468
284	C	0.532995	0.139361	0.670068
285	C	0.560405	0.193715	0.669333
286	H	0.888997	0.515732	0.67079
287	H	0.798957	0.471323	0.669356
288	H	0.888997	0.3751	0.670709
289	H	0.79896	0.329472	0.669229
290	H	0.679714	0.210227	0.669272
291	H	0.634084	0.120191	0.670733
292	H	0.537862	0.210228	0.669329
293	H	0.493456	0.120192	0.67076
294	H	0.537861	0.329474	0.669279
295	H	0.493455	0.375104	0.67075
296	H	0.634088	0.515736	0.670753
297	H	0.679715	0.471327	0.669296
298	H	0.718138	0.428925	0.668695
299	H	0.718136	0.291051	0.668879
300	H	0.580263	0.291052	0.668759
301	C	0.532325	0.476863	0.673261
302	C	0.519409	0.489777	0.714909
303	C	0.492106	0.517076	0.716403
304	C	0.478704	0.530484	0.674759
305	N	0.492631	0.516558	0.969405
306	N	0.517884	0.491309	0.968596
307	N	0.479894	0.529287	0.756808
308	H	0.489583	0.519597	0.784812
309	H	0.461184	0.547996	0.759081
310	H	0.529882	0.479303	0.744081
311	C	0.532323	0.057301	0.673245
312	C	0.519416	0.031473	0.714895
313	C	0.492114	0.97687	0.716389
314	C	0.478702	0.950058	0.674749
315	N	0.492621	0.977909	0.969392
316	N	0.517871	0.028411	0.968582
317	N	0.479907	0.952452	0.756797
318	H	0.489598	0.971832	0.784798
319	H	0.461192	0.91503	0.759074
320	H	0.529895	0.052424	0.744065
321	C	0.951888	0.476863	0.673255
322	C	0.977711	0.489773	0.714902
323	N	0.980776	0.491309	0.968589
324	H	0.956758	0.479295	0.744075
