data_C174H126N36O6_2018-02-15_10:34:42
#******************************************
#
# CIF file created by Zeo++
# Zeo++ is an open source package to
# analyze microporous materials
#
#*******************************************

_cell_length_a		25.252   
_cell_length_b		25.2537   
_cell_length_c		30.0358   
_cell_angle_alpha		90   
_cell_angle_beta		90   
_cell_angle_gamma		90.0377   

_symmetry_space_group_name_H-M		'P1'
_symmetry_Int_Tables_number		1
_symmetry_cell_setting		Monoclinic

loop_
_symmetry_equiv_pos_as_xyz
'+x,+y,+z'

loop_
_atom_site_label
_atom_site_type_symbol
_atom_site_fract_x
_atom_site_fract_y
_atom_site_fract_z
1	C	0.917711	0.850901	0.004382
2	C	0.874508	0.884286	0.002712
3	C	0.893016	0.936389	0.000252
4	N	0.946558	0.932647	0.000442
5	C	0.963593	0.881846	0.002962
6	C	0.016172	0.861766	0.004198
7	C	0.062792	0.893144	0.003902
8	N	0.06621	0.94649	0.002854
9	C	0.116996	0.963205	0.004046
10	C	0.14824	0.917612	0.005634
11	C	0.114796	0.874378	0.005457
12	C	0.135663	0.016201	0.003932
13	C	0.103027	0.062006	0.002016
14	N	0.049494	0.065781	0.001483
15	C	0.032508	0.116618	0.999249
16	C	0.07846	0.147503	0.99813
17	C	0.121617	0.114096	0.000103
18	C	0.979925	0.136735	0.997831
19	C	0.933326	0.105265	0.997977
20	N	0.929849	0.051909	0.999199
21	C	0.87905	0.035169	0.99802
22	C	0.847871	0.080789	0.996063
23	C	0.881314	0.124009	0.996382
24	C	0.860308	0.982168	0.99834
25	C	0.804605	0.974407	0.995177
26	C	0.771681	0.980303	0.032866
27	C	0.716544	0.973639	0.029021
28	C	0.693294	0.960532	0.987619
29	C	0.726515	0.954232	0.283439
30	C	0.78156	0.961304	0.287103
31	C	0.973316	0.192538	0.994198
32	C	0.97794	0.225471	0.032012
33	C	0.971767	0.280628	0.027962
34	C	0.960329	0.303885	0.986221
35	C	0.955496	0.270688	0.281873
36	C	0.962176	0.215628	0.285743
37	C	0.191273	0.023918	0.00754
38	C	0.223388	0.026961	0.302477
39	C	0.278432	0.034121	0.306571
40	C	0.302366	0.038614	0.01565
41	C	0.269923	0.035737	0.05394
42	C	0.214939	0.028383	0.049968
43	C	0.022826	0.806052	0.008022
44	C	0.026191	0.77391	0.302998
45	C	0.026569	0.78238	0.050496
46	C	0.033634	0.727374	0.05454
47	C	0.036891	0.69492	0.016281
48	C	0.033	0.718845	0.307162
49	H	0.035119	0.696234	0.278947
50	H	0.023606	0.790319	0.271911
51	H	0.035864	0.711163	0.085698
52	H	0.024165	0.804994	0.078718
53	H	0.915292	0.810582	0.006498
54	H	0.836004	0.87186	0.003664
55	H	0.96982	0.962599	0.998367
56	H	0.026209	0.035818	0.003196
57	H	0.126998	0.835833	0.006718
58	H	0.188626	0.915497	0.006858
59	H	0.206994	0.023714	0.271428
60	H	0.301048	0.03588	0.278338
61	H	0.192366	0.026081	0.078223
62	H	0.286145	0.038346	0.085075
63	H	0.160146	0.126493	0.99963
64	H	0.080997	0.187817	0.996136
65	H	0.807503	0.082987	0.994618
66	H	0.869067	0.162535	0.995121
67	H	0.986123	0.209574	0.062596
68	H	0.975627	0.303788	0.05573
69	H	0.958819	0.192517	0.257873
70	H	0.947681	0.28639	0.251171
71	H	0.804653	0.957091	0.259308
72	H	0.710815	0.945251	0.252957
73	H	0.693369	0.978608	0.056652
74	H	0.787547	0.989965	0.063158
75	C	0.954693	0.362224	0.982233
76	H	0.925132	0.375407	0.006435
77	H	0.94002	0.373077	0.282518
78	C	0.634926	0.954881	0.983741
79	H	0.621645	0.926149	0.008619
80	H	0.624018	0.939165	0.284382
81	C	0.043055	0.636623	0.020169
82	H	0.051332	0.625132	0.054641
83	H	0.0771	0.624585	0.333363
84	C	0.360685	0.044765	0.019493
85	H	0.372177	0.05353	0.053879
86	H	0.372834	0.078491	0.332339
87	C	0.003824	0.444675	0.324764
88	N	0.006314	0.467571	0.0323
89	C	0.003707	0.520569	0.038875
90	C	0.998289	0.554021	0.001599
91	N	0.995874	0.531185	0.29411
92	C	0.998195	0.478017	0.286884
93	H	0.005312	0.53549	0.070447
94	C	0.997242	0.46072	0.243259
95	O	0.961687	0.478009	0.219764
96	H	0.006905	0.423498	0.236948
97	N	0.994385	0.609554	0.0043
98	H	0.962869	0.618923	0.02447
99	N	0.006074	0.388858	0.324407
100	H	0.034946	0.376456	0.302708
101	C	0.552612	0.004518	0.324939
102	N	0.529575	0.007597	0.032391
103	C	0.47654	0.005279	0.038858
104	C	0.443196	0.999524	0.001549
105	N	0.466183	0.996523	0.29415
106	C	0.519396	0.998562	0.287004
107	H	0.46152	0.007305	0.070378
108	C	0.537025	0.997041	0.243464
109	O	0.515629	0.966606	0.217414
110	H	0.574931	0.00403	0.237236
111	N	0.38763	0.995826	0.004141
112	H	0.37806	0.964595	0.02457
113	N	0.608447	0.006578	0.32475
114	H	0.62113	0.03484	0.302588
115	C	0.917711	0.850901	0.337714
116	C	0.874508	0.884286	0.336046
117	C	0.893016	0.936389	0.333586
118	N	0.946558	0.932647	0.333775
119	C	0.963593	0.881846	0.336296
120	C	0.016172	0.861766	0.337531
121	C	0.062792	0.893144	0.337235
122	N	0.06621	0.94649	0.336186
123	C	0.116996	0.963205	0.337378
124	C	0.14824	0.917612	0.338966
125	C	0.114796	0.874378	0.33879
126	C	0.135663	0.016201	0.337265
127	C	0.103027	0.062006	0.33535
128	N	0.049494	0.065781	0.334818
129	C	0.032508	0.116618	0.332582
130	C	0.07846	0.147503	0.331465
131	C	0.121617	0.114096	0.333436
132	C	0.979925	0.136735	0.331164
133	C	0.933326	0.105265	0.331311
134	N	0.929849	0.051909	0.332535
135	C	0.87905	0.035169	0.331356
136	C	0.847871	0.080789	0.329397
137	C	0.881314	0.124009	0.329715
138	C	0.860308	0.982168	0.331673
139	C	0.804605	0.974407	0.32851
140	C	0.771681	0.980303	0.3662
141	C	0.716544	0.973639	0.362355
142	C	0.693294	0.960532	0.320954
143	C	0.726515	0.954232	0.616772
144	C	0.78156	0.961304	0.620437
145	C	0.973316	0.192538	0.327533
146	C	0.97794	0.225471	0.365345
147	C	0.971767	0.280628	0.361296
148	C	0.960329	0.303885	0.319557
149	C	0.955496	0.270688	0.615207
150	C	0.962176	0.215628	0.619075
151	C	0.191273	0.023918	0.340874
152	C	0.223388	0.026961	0.635809
153	C	0.278432	0.034121	0.639904
154	C	0.302366	0.038614	0.348984
155	C	0.269923	0.035737	0.387272
156	C	0.214939	0.028383	0.3833
157	C	0.022826	0.806052	0.341356
158	C	0.026191	0.77391	0.636332
159	C	0.026569	0.78238	0.383829
160	C	0.033634	0.727374	0.387874
161	C	0.036891	0.69492	0.349613
162	C	0.033	0.718845	0.640497
163	H	0.035119	0.696234	0.61228
164	H	0.023606	0.790319	0.605245
165	H	0.035864	0.711163	0.419031
166	H	0.024165	0.804994	0.412052
167	H	0.915292	0.810582	0.339832
168	H	0.836004	0.87186	0.336998
169	H	0.96982	0.962599	0.331702
170	H	0.026209	0.035818	0.336529
171	H	0.126998	0.835833	0.340051
172	H	0.188626	0.915497	0.340191
173	H	0.206994	0.023714	0.604759
174	H	0.301048	0.03588	0.611671
175	H	0.192366	0.026081	0.411556
176	H	0.286145	0.038346	0.418408
177	H	0.160146	0.126493	0.332963
178	H	0.080997	0.187817	0.329469
179	H	0.807503	0.082987	0.327952
180	H	0.869067	0.162535	0.328454
181	H	0.986123	0.209574	0.395928
182	H	0.975627	0.303788	0.389063
183	H	0.958819	0.192517	0.591205
184	H	0.947681	0.28639	0.584503
185	H	0.804653	0.957091	0.59264
186	H	0.710815	0.945251	0.586291
187	H	0.693369	0.978608	0.389985
188	H	0.787547	0.989965	0.396491
189	C	0.954693	0.362224	0.315566
190	H	0.925132	0.375407	0.339768
191	H	0.94002	0.373077	0.615853
192	C	0.634926	0.954881	0.317076
193	H	0.621645	0.926149	0.341952
194	H	0.624018	0.939165	0.617714
195	C	0.043055	0.636623	0.353502
196	H	0.051332	0.625132	0.387974
197	H	0.0771	0.624585	0.666695
198	C	0.360685	0.044765	0.352826
199	H	0.372177	0.05353	0.387212
200	H	0.372834	0.078491	0.665673
201	C	0.003824	0.444675	0.658096
202	N	0.006314	0.467571	0.365634
203	C	0.003707	0.520569	0.372206
204	C	0.998289	0.554021	0.334931
205	N	0.995874	0.531185	0.627442
206	C	0.998195	0.478017	0.620217
207	H	0.005312	0.53549	0.403779
208	C	0.997242	0.46072	0.576593
209	O	0.961687	0.478009	0.553097
210	H	0.006905	0.423498	0.57028
211	N	0.994385	0.609554	0.337634
212	H	0.962869	0.618923	0.357804
213	N	0.006074	0.388858	0.657739
214	H	0.034946	0.376456	0.636042
215	C	0.552612	0.004518	0.658272
216	N	0.529575	0.007597	0.365724
217	C	0.47654	0.005279	0.37219
218	C	0.443196	0.999524	0.334881
219	N	0.466183	0.996523	0.627482
220	C	0.519396	0.998562	0.620337
221	H	0.46152	0.007305	0.403712
222	C	0.537025	0.997041	0.576796
223	O	0.515629	0.966606	0.550747
224	H	0.574931	0.00403	0.57057
225	N	0.38763	0.995826	0.337474
226	H	0.37806	0.964595	0.357903
227	N	0.608447	0.006578	0.658082
228	H	0.62113	0.03484	0.635922
229	C	0.917711	0.850901	0.671047
230	C	0.874508	0.884286	0.669379
231	C	0.893016	0.936389	0.666918
232	N	0.946558	0.932647	0.667108
233	C	0.963593	0.881846	0.669629
234	C	0.016172	0.861766	0.670864
235	C	0.062792	0.893144	0.670567
236	N	0.06621	0.94649	0.669519
237	C	0.116996	0.963205	0.670711
238	C	0.14824	0.917612	0.672299
239	C	0.114796	0.874378	0.672122
240	C	0.135663	0.016201	0.670597
241	C	0.103027	0.062006	0.668683
242	N	0.049494	0.065781	0.66815
243	C	0.032508	0.116618	0.665916
244	C	0.07846	0.147503	0.664798
245	C	0.121617	0.114096	0.666769
246	C	0.979925	0.136735	0.664498
247	C	0.933326	0.105265	0.664644
248	N	0.929849	0.051909	0.665866
249	C	0.87905	0.035169	0.664688
250	C	0.847871	0.080789	0.66273
251	C	0.881314	0.124009	0.663046
252	C	0.860308	0.982168	0.665004
253	C	0.804605	0.974407	0.661844
254	C	0.771681	0.980303	0.699533
255	C	0.716544	0.973639	0.695687
256	C	0.693294	0.960532	0.654287
257	C	0.726515	0.954232	0.950104
258	C	0.78156	0.961304	0.95377
259	C	0.973316	0.192538	0.660866
260	C	0.97794	0.225471	0.698677
261	C	0.971767	0.280628	0.694629
262	C	0.960329	0.303885	0.652888
263	C	0.955496	0.270688	0.948539
264	C	0.962176	0.215628	0.952408
265	C	0.191273	0.023918	0.674206
266	C	0.223388	0.026961	0.969145
267	C	0.278432	0.034121	0.973237
268	C	0.302366	0.038614	0.682317
269	C	0.269923	0.035737	0.720604
270	C	0.214939	0.028383	0.716632
271	C	0.022826	0.806052	0.674689
272	C	0.026191	0.77391	0.969664
273	C	0.026569	0.78238	0.717162
274	C	0.033634	0.727374	0.721207
275	C	0.036891	0.69492	0.682946
276	C	0.033	0.718845	0.973829
277	H	0.035119	0.696234	0.945613
278	H	0.023606	0.790319	0.938578
279	H	0.035864	0.711163	0.752363
280	H	0.024165	0.804994	0.745385
281	H	0.915292	0.810582	0.673164
282	H	0.836004	0.87186	0.670331
283	H	0.96982	0.962599	0.665034
284	H	0.026209	0.035818	0.669862
285	H	0.126998	0.835833	0.673384
286	H	0.188626	0.915497	0.673524
287	H	0.206994	0.023714	0.938092
288	H	0.301048	0.03588	0.945004
289	H	0.192366	0.026081	0.744889
290	H	0.286145	0.038346	0.751741
291	H	0.160146	0.126493	0.666296
292	H	0.080997	0.187817	0.662803
293	H	0.807503	0.082987	0.661285
294	H	0.869067	0.162535	0.661788
295	H	0.986123	0.209574	0.729261
296	H	0.975627	0.303788	0.722396
297	H	0.958819	0.192517	0.924538
298	H	0.947681	0.28639	0.917836
299	H	0.804653	0.957091	0.925973
300	H	0.710815	0.945251	0.919624
301	H	0.693369	0.978608	0.723318
302	H	0.787547	0.989965	0.729823
303	C	0.954693	0.362224	0.6489
304	H	0.925132	0.375407	0.673101
305	H	0.94002	0.373077	0.949185
306	C	0.634926	0.954881	0.650408
307	H	0.621645	0.926149	0.675285
308	H	0.624018	0.939165	0.951046
309	C	0.043055	0.636623	0.686835
310	H	0.051332	0.625132	0.721307
311	H	0.0771	0.624585	3.1e-05
312	C	0.360685	0.044765	0.686159
313	H	0.372177	0.05353	0.720544
314	H	0.372834	0.078491	0.999006
315	C	0.003824	0.444675	0.991432
316	N	0.006314	0.467571	0.698967
317	C	0.003707	0.520569	0.705539
318	C	0.998289	0.554021	0.668267
319	N	0.995874	0.531185	0.960775
320	C	0.998195	0.478017	0.95355
321	H	0.005312	0.53549	0.737111
322	C	0.997242	0.46072	0.909925
323	O	0.961687	0.478009	0.88643
324	H	0.006905	0.423498	0.903613
325	N	0.994385	0.609554	0.670967
326	H	0.962869	0.618923	0.691136
327	N	0.006074	0.388858	0.991072
328	H	0.034946	0.376456	0.969375
329	C	0.552612	0.004518	0.991605
330	N	0.529575	0.007597	0.699057
331	C	0.47654	0.005279	0.705522
332	C	0.443196	0.999524	0.668214
333	N	0.466183	0.996523	0.960815
334	C	0.519396	0.998562	0.95367
335	H	0.46152	0.007305	0.737045
336	C	0.537025	0.997041	0.910129
337	O	0.515629	0.966606	0.88408
338	H	0.574931	0.00403	0.903903
339	N	0.38763	0.995826	0.670807
340	H	0.37806	0.964595	0.691236
341	N	0.608447	0.006578	0.991415
342	H	0.62113	0.03484	0.969255
