data_C174H120N42_2018-02-15_10:34:41
#******************************************
#
# CIF file created by Zeo++
# Zeo++ is an open source package to
# analyze microporous materials
#
#*******************************************

_cell_length_a		25.2414   
_cell_length_b		25.2431   
_cell_length_c		30.0338   
_cell_angle_alpha		90   
_cell_angle_beta		90   
_cell_angle_gamma		89.9623   

_symmetry_space_group_name_H-M		'P1'
_symmetry_Int_Tables_number		1
_symmetry_cell_setting		Monoclinic

loop_
_symmetry_equiv_pos_as_xyz
'+x,+y,+z'

loop_
_atom_site_label
_atom_site_type_symbol
_atom_site_fract_x
_atom_site_fract_y
_atom_site_fract_z
1	C	0.080382	0.850038	0.335892
2	C	0.123679	0.88337	0.335848
3	C	0.105329	0.935606	0.334543
4	N	0.051787	0.93195	0.333155
5	C	0.034578	0.881112	0.334214
6	C	0.981907	0.861119	0.334197
7	C	0.935384	0.892656	0.332643
8	N	0.932084	0.946029	0.331283
9	C	0.881299	0.962826	0.330063
10	C	0.84994	0.917257	0.330653
11	C	0.883299	0.873982	0.332153
12	C	0.86268	0.015849	0.328589
13	C	0.895485	0.061641	0.328579
14	N	0.949014	0.065299	0.330151
15	C	0.966222	0.116121	0.32891
16	C	0.920431	0.147194	0.326967
17	C	0.877151	0.113848	0.326533
18	C	0.018875	0.136146	0.329469
19	C	0.065404	0.104626	0.331203
20	N	0.068736	0.051234	0.332022
21	C	0.119519	0.034433	0.333504
22	C	0.150824	0.080046	0.333817
23	C	0.117476	0.123312	0.332033
24	C	0.138147	0.981397	0.334823
25	C	0.193896	0.973688	0.337793
26	C	0.226098	0.976992	0.299443
27	C	0.281246	0.97002	0.302772
28	C	0.305244	0.95907	0.344316
29	C	0.272764	0.955469	0.049213
30	C	0.217693	0.96296	0.046059
31	C	0.025747	0.192009	0.327082
32	C	0.023395	0.218115	0.285541
33	C	0.03057	0.273251	0.282986
34	C	0.040983	0.303292	0.321728
35	C	0.042923	0.277022	0.029951
36	C	0.035373	0.221912	0.032654
37	C	0.806921	0.023579	0.326154
38	C	0.777477	0.035812	0.031463
39	C	0.722435	0.04393	0.028783
40	C	0.695736	0.039857	0.320862
41	C	0.725347	0.027018	0.282387
42	C	0.780432	0.019294	0.284897
43	C	0.975003	0.805301	0.337234
44	C	0.963831	0.781596	0.045441
45	C	0.978907	0.773043	0.298962
46	C	0.97197	0.717899	0.30231
47	C	0.960521	0.693988	0.343786
48	C	0.956466	0.726527	0.048618
49	H	0.948609	0.710337	0.079135
50	H	0.960888	0.80426	0.073606
51	H	0.975194	0.695232	0.274187
52	H	0.986974	0.789436	0.268532
53	H	0.082717	0.809643	0.337154
54	H	0.162147	0.870781	0.33699
55	H	0.028592	0.962057	0.332102
56	H	0.972194	0.035215	0.331832
57	H	0.870952	0.835432	0.332725
58	H	0.809508	0.915169	0.330182
59	H	0.795898	0.038908	0.06172
60	H	0.701904	0.052404	0.057281
61	H	0.801007	0.01035	0.256495
62	H	0.706963	0.023387	0.252173
63	H	0.838706	0.126418	0.324838
64	H	0.918107	0.18759	0.325691
65	H	0.191233	0.082196	0.334906
66	H	0.129829	0.161859	0.331718
67	H	0.016319	0.197205	0.256944
68	H	0.028378	0.291344	0.25255
69	H	0.037069	0.203768	0.063107
70	H	0.049615	0.297894	0.058605
71	H	0.195104	0.96058	0.074303
72	H	0.289031	0.948065	0.079786
73	H	0.303872	0.972975	0.274606
74	H	0.209678	0.984867	0.268985
75	C	0.047614	0.361613	0.318694
76	H	0.069512	0.371618	0.288403
77	H	0.071351	0.37561	0.013507
78	C	0.363617	0.952669	0.347382
79	H	0.375863	0.922605	0.323219
80	H	0.375244	0.938467	0.047079
81	C	0.953864	0.635655	0.346856
82	H	0.923818	0.623584	0.322627
83	H	0.939506	0.624119	0.046523
84	C	0.637426	0.046837	0.317886
85	H	0.627571	0.068996	0.28769
86	H	0.623446	0.070401	0.012816
87	C	0.997474	0.443931	0.321473
88	N	0.986905	0.466211	0.028346
89	C	0.988459	0.51916	0.03574
90	C	0.001417	0.553165	9.8e-05
91	N	0.011932	0.531032	0.293192
92	C	0.010533	0.478032	0.285602
93	H	0.980621	0.533651	0.066794
94	C	0.020479	0.461417	0.245537
95	N	0.02917	0.446673	0.21011
96	N	0.995102	0.388115	0.319426
97	H	0.972199	0.376882	0.29278
98	N	0.004891	0.60865	0.004014
99	H	0.032186	0.617551	0.028275
100	C	0.55492	0.996986	0.320862
101	N	0.533026	0.986048	0.027812
102	C	0.480136	0.987474	0.035556
103	C	0.445772	0.000615	0.000195
104	N	0.467518	0.011527	0.293219
105	C	0.520464	0.010333	0.285298
106	H	0.46595	0.979341	0.06665
107	C	0.536712	0.020642	0.245196
108	N	0.551143	0.029649	0.209736
109	N	0.610707	0.994462	0.318388
110	H	0.621624	0.971727	0.291545
111	N	0.39029	0.003817	0.004445
112	H	0.381433	0.031025	0.028793
113	C	0.080382	0.850038	0.669223
114	C	0.123679	0.88337	0.66918
115	C	0.105329	0.935606	0.667878
116	N	0.051787	0.93195	0.666486
117	C	0.034578	0.881112	0.667548
118	C	0.981907	0.861119	0.667528
119	C	0.935384	0.892656	0.665977
120	N	0.932084	0.946029	0.664615
121	C	0.881299	0.962826	0.663396
122	C	0.84994	0.917257	0.663986
123	C	0.883299	0.873982	0.665487
124	C	0.86268	0.015849	0.661921
125	C	0.895485	0.061641	0.661911
126	N	0.949014	0.065299	0.663486
127	C	0.966222	0.116121	0.662244
128	C	0.920431	0.147194	0.6603
129	C	0.877151	0.113848	0.659867
130	C	0.018875	0.136146	0.6628
131	C	0.065404	0.104626	0.664535
132	N	0.068736	0.051234	0.665354
133	C	0.119519	0.034433	0.666836
134	C	0.150824	0.080046	0.667149
135	C	0.117476	0.123312	0.665367
136	C	0.138147	0.981397	0.668158
137	C	0.193896	0.973688	0.671128
138	C	0.226098	0.976992	0.632777
139	C	0.281246	0.97002	0.636107
140	C	0.305244	0.95907	0.677647
141	C	0.272764	0.955469	0.382546
142	C	0.217693	0.96296	0.379393
143	C	0.025747	0.192009	0.660416
144	C	0.023395	0.218115	0.618873
145	C	0.03057	0.273251	0.616319
146	C	0.040983	0.303292	0.655062
147	C	0.042923	0.277022	0.363284
148	C	0.035373	0.221912	0.365988
149	C	0.806921	0.023579	0.659487
150	C	0.777477	0.035812	0.364796
151	C	0.722435	0.04393	0.362116
152	C	0.695736	0.039857	0.654193
153	C	0.725347	0.027018	0.61572
154	C	0.780432	0.019294	0.61823
155	C	0.975003	0.805301	0.670565
156	C	0.963831	0.781596	0.378773
157	C	0.978907	0.773043	0.632295
158	C	0.97197	0.717899	0.635644
159	C	0.960521	0.693988	0.677121
160	C	0.956466	0.726527	0.38195
161	H	0.948609	0.710337	0.412469
162	H	0.960888	0.80426	0.406938
163	H	0.975194	0.695232	0.607519
164	H	0.986974	0.789436	0.601866
165	H	0.082717	0.809643	0.670488
166	H	0.162147	0.870781	0.670322
167	H	0.028592	0.962057	0.665434
168	H	0.972194	0.035215	0.665164
169	H	0.870952	0.835432	0.66606
170	H	0.809508	0.915169	0.663516
171	H	0.795898	0.038908	0.395052
172	H	0.701904	0.052404	0.390613
173	H	0.801007	0.01035	0.589829
174	H	0.706963	0.023387	0.585507
175	H	0.838706	0.126418	0.658172
176	H	0.918107	0.18759	0.659024
177	H	0.191233	0.082196	0.668241
178	H	0.129829	0.161859	0.665051
179	H	0.016319	0.197205	0.590279
180	H	0.028378	0.291344	0.585884
181	H	0.037069	0.203768	0.39644
182	H	0.049615	0.297894	0.391939
183	H	0.195104	0.96058	0.407638
184	H	0.289031	0.948065	0.413118
185	H	0.303872	0.972975	0.607939
186	H	0.209678	0.984867	0.602318
187	C	0.047614	0.361613	0.652026
188	H	0.069512	0.371618	0.621736
189	H	0.071351	0.37561	0.346839
190	C	0.363617	0.952669	0.680717
191	H	0.375863	0.922605	0.656551
192	H	0.375244	0.938467	0.380412
193	C	0.953864	0.635655	0.680187
194	H	0.923818	0.623584	0.655961
195	H	0.939506	0.624119	0.379856
196	C	0.637426	0.046837	0.65122
197	H	0.627571	0.068996	0.621024
198	H	0.623446	0.070401	0.34615
199	C	0.997474	0.443931	0.654806
200	N	0.986905	0.466211	0.361679
201	C	0.988459	0.51916	0.369074
202	C	0.001417	0.553165	0.333431
203	N	0.011932	0.531032	0.626524
204	C	0.010533	0.478032	0.618936
205	H	0.980621	0.533651	0.400126
206	C	0.020479	0.461417	0.578871
207	N	0.02917	0.446673	0.543441
208	N	0.995102	0.388115	0.652758
209	H	0.972199	0.376882	0.626112
210	N	0.004891	0.60865	0.337347
211	H	0.032186	0.617551	0.361609
212	C	0.55492	0.996986	0.654193
213	N	0.533026	0.986048	0.361147
214	C	0.480136	0.987474	0.368888
215	C	0.445772	0.000615	0.333528
216	N	0.467518	0.011527	0.626551
217	C	0.520464	0.010333	0.61863
218	H	0.46595	0.979341	0.399983
219	C	0.536712	0.020642	0.578528
220	N	0.551143	0.029649	0.543068
221	N	0.610707	0.994462	0.651723
222	H	0.621624	0.971727	0.62488
223	N	0.39029	0.003817	0.33778
224	H	0.381433	0.031025	0.362126
225	C	0.080382	0.850038	0.002557
226	C	0.123679	0.88337	0.002514
227	C	0.105329	0.935606	0.00121
228	N	0.051787	0.93195	0.999821
229	C	0.034578	0.881112	0.000882
230	C	0.981907	0.861119	0.000862
231	C	0.935384	0.892656	0.999308
232	N	0.932084	0.946029	0.997949
233	C	0.881299	0.962826	0.996731
234	C	0.84994	0.917257	0.99732
235	C	0.883299	0.873982	0.998818
236	C	0.86268	0.015849	0.995256
237	C	0.895485	0.061641	0.995246
238	N	0.949014	0.065299	0.996817
239	C	0.966222	0.116121	0.995575
240	C	0.920431	0.147194	0.993634
241	C	0.877151	0.113848	0.993198
242	C	0.018875	0.136146	0.996135
243	C	0.065404	0.104626	0.99787
244	N	0.068736	0.051234	0.998689
245	C	0.119519	0.034433	0.00017
246	C	0.150824	0.080046	0.000483
247	C	0.117476	0.123312	0.998699
248	C	0.138147	0.981397	0.001491
249	C	0.193896	0.973688	0.004461
250	C	0.226098	0.976992	0.966109
251	C	0.281246	0.97002	0.969438
252	C	0.305244	0.95907	0.010982
253	C	0.272764	0.955469	0.71588
254	C	0.217693	0.96296	0.712724
255	C	0.025747	0.192009	0.993748
256	C	0.023395	0.218115	0.952208
257	C	0.03057	0.273251	0.949654
258	C	0.040983	0.303292	0.988394
259	C	0.042923	0.277022	0.696619
260	C	0.035373	0.221912	0.699319
261	C	0.806921	0.023579	0.992819
262	C	0.777477	0.035812	0.69813
263	C	0.722435	0.04393	0.69545
264	C	0.695736	0.039857	0.987528
265	C	0.725347	0.027018	0.949055
266	C	0.780432	0.019294	0.951565
267	C	0.975003	0.805301	0.003899
268	C	0.963831	0.781596	0.712108
269	C	0.978907	0.773043	0.965629
270	C	0.97197	0.717899	0.968975
271	C	0.960521	0.693988	0.010455
272	C	0.956466	0.726527	0.715284
273	H	0.948609	0.710337	0.7458
274	H	0.960888	0.80426	0.740273
275	H	0.975194	0.695232	0.940854
276	H	0.986974	0.789436	0.9352
277	H	0.082717	0.809643	0.003822
278	H	0.162147	0.870781	0.003657
279	H	0.028592	0.962057	0.998769
280	H	0.972194	0.035215	0.998499
281	H	0.870952	0.835432	0.999391
282	H	0.809508	0.915169	0.996847
283	H	0.795898	0.038908	0.728386
284	H	0.701904	0.052404	0.723948
285	H	0.801007	0.01035	0.92316
286	H	0.706963	0.023387	0.918839
287	H	0.838706	0.126418	0.991503
288	H	0.918107	0.18759	0.992359
289	H	0.191233	0.082196	0.001573
290	H	0.129829	0.161859	0.998386
291	H	0.016319	0.197205	0.92361
292	H	0.028378	0.291344	0.919215
293	H	0.037069	0.203768	0.729775
294	H	0.049615	0.297894	0.72527
295	H	0.195104	0.96058	0.740969
296	H	0.289031	0.948065	0.746453
297	H	0.303872	0.972975	0.941273
298	H	0.209678	0.984867	0.93565
299	C	0.047614	0.361613	0.98536
300	H	0.069512	0.371618	0.955068
301	H	0.071351	0.37561	0.680174
302	C	0.363617	0.952669	0.014049
303	H	0.375863	0.922605	0.989885
304	H	0.375244	0.938467	0.713746
305	C	0.953864	0.635655	0.013521
306	H	0.923818	0.623584	0.989293
307	H	0.939506	0.624119	0.71319
308	C	0.637426	0.046837	0.984551
309	H	0.627571	0.068996	0.954355
310	H	0.623446	0.070401	0.679481
311	C	0.997474	0.443931	0.98814
312	N	0.986905	0.466211	0.695014
313	C	0.988459	0.51916	0.702406
314	C	0.001417	0.553165	0.666766
315	N	0.011932	0.531032	0.959859
316	C	0.010533	0.478032	0.952268
317	H	0.980621	0.533651	0.733461
318	C	0.020479	0.461417	0.912203
319	N	0.02917	0.446673	0.876776
320	N	0.995102	0.388115	0.986093
321	H	0.972199	0.376882	0.959446
322	N	0.004891	0.60865	0.670681
323	H	0.032186	0.617551	0.694941
324	C	0.55492	0.996986	0.987528
325	N	0.533026	0.986048	0.694478
326	C	0.480136	0.987474	0.702222
327	C	0.445772	0.000615	0.666862
328	N	0.467518	0.011527	0.959886
329	C	0.520464	0.010333	0.951965
330	H	0.46595	0.979341	0.733317
331	C	0.536712	0.020642	0.911863
332	N	0.551143	0.029649	0.876403
333	N	0.610707	0.994462	0.985054
334	H	0.621624	0.971727	0.958211
335	N	0.39029	0.003817	0.671111
336	H	0.381433	0.031025	0.69546
