data_C198H108N36_2018-02-15_10:42:33
#******************************************
#
# CIF file created by Zeo++
# Zeo++ is an open source package to
# analyze microporous materials
#
#*******************************************

_cell_length_a		29.3466   
_cell_length_b		29.3468   
_cell_length_c		29.8634   
_cell_angle_alpha		90   
_cell_angle_beta		90   
_cell_angle_gamma		120   

_symmetry_space_group_name_H-M		'P1'
_symmetry_Int_Tables_number		1
_symmetry_cell_setting		Monoclinic

loop_
_symmetry_equiv_pos_as_xyz
'+x,+y,+z'

loop_
_atom_site_label
_atom_site_type_symbol
_atom_site_fract_x
_atom_site_fract_y
_atom_site_fract_z
1	C	0.031558	0.516352	0.050033
2	N	0.02912	0.515136	0.303474
3	C	0.031036	0.516088	0.132275
4	C	0.031558	0.516352	0.383366
5	N	0.02912	0.515136	0.636807
6	C	0.031036	0.516088	0.465607
7	C	0.031558	0.516352	0.716698
8	N	0.02912	0.515136	0.970139
9	C	0.031036	0.516088	0.798939
10	H	0.051117	0.526129	0.161954
11	H	0.051117	0.526129	0.495286
12	H	0.051117	0.526129	0.828621
13	C	0.058235	0.52969	0.008217
14	C	0.058676	0.529911	0.091539
15	C	0.058235	0.52969	0.341549
16	C	0.058676	0.529911	0.424872
17	C	0.058235	0.52969	0.674884
18	C	0.058676	0.529911	0.758203
19	C	0.36396	0.723343	0.000119
20	N	0.389435	0.695293	0.000169
21	C	0.363962	0.641766	0.000122
22	N	0.310435	0.616293	0.000172
23	C	0.282381	0.641766	0.000119
24	N	0.310433	0.695289	0.000172
25	C	0.392088	0.613641	0.000591
26	C	0.447901	0.640444	0.00115
27	C	0.475669	0.612842	0.002697
28	C	0.448363	0.557367	0.003544
29	C	0.392888	0.53006	0.002699
30	C	0.365285	0.557827	0.001147
31	C	0.392087	0.779598	0.000584
32	C	0.447899	0.808608	0.001137
33	C	0.475665	0.863977	0.00268
34	C	0.448359	0.892145	0.00353
35	C	0.392884	0.863973	0.00269
36	C	0.365283	0.808604	0.001147
37	C	0.226128	0.613637	0.000591
38	C	0.197119	0.64044	0.00115
39	C	0.141749	0.612838	0.002679
40	C	0.113576	0.557363	0.003523
41	C	0.141748	0.53006	0.002686
42	C	0.197118	0.557827	0.001143
43	H	0.51593	0.883516	0.003932
44	H	0.469263	0.789741	0.00104
45	H	0.372161	0.883516	0.003924
46	H	0.325052	0.789737	0.001029
47	H	0.215985	0.680672	0.001029
48	H	0.122208	0.633562	0.003921
49	H	0.215984	0.536462	0.001043
50	H	0.122208	0.489797	0.003935
51	H	0.325054	0.536462	0.001036
52	H	0.372164	0.489797	0.003932
53	H	0.515934	0.633566	0.003923
54	H	0.469264	0.680672	0.001026
55	C	0.642905	0.281235	0.000115
56	N	0.617435	0.309289	0.000169
57	C	0.642907	0.362815	0.000119
58	N	0.696432	0.388289	0.000172
59	C	0.724487	0.362815	0.000119
60	N	0.696432	0.309289	0.000169
61	C	0.614781	0.390941	0.000591
62	C	0.558969	0.364138	0.00114
63	C	0.531201	0.391741	0.002692
64	C	0.558503	0.447216	0.003522
65	C	0.613979	0.474518	0.002678
66	C	0.641582	0.446751	0.001143
67	C	0.614783	0.224984	0.000587
68	C	0.558968	0.195974	0.00115
69	C	0.531201	0.140605	0.002695
70	C	0.558509	0.112437	0.003543
71	C	0.613981	0.140605	0.002698
72	C	0.641584	0.195974	0.00114
73	C	0.780739	0.39094	0.000584
74	C	0.809747	0.364137	0.001147
75	C	0.865117	0.391739	0.002697
76	C	0.893286	0.447212	0.00354
77	C	0.865119	0.474518	0.00267
78	C	0.809748	0.446751	0.00114
79	H	0.490936	0.121063	0.003921
80	H	0.537603	0.214839	0.001023
81	H	0.634708	0.121065	0.003933
82	H	0.681815	0.214841	0.001033
83	H	0.790883	0.323907	0.001026
84	H	0.884659	0.371015	0.003931
85	H	0.790884	0.468117	0.001036
86	H	0.884658	0.514782	0.003936
87	H	0.681812	0.468117	0.001036
88	H	0.6347	0.514782	0.003921
89	H	0.490936	0.371016	0.003928
90	H	0.537603	0.323907	0.00104
91	C	0.530835	0.474888	0.008216
92	C	0.517497	0.488227	0.050033
93	C	0.489374	0.516348	0.050038
94	C	0.476033	0.529694	0.008226
95	N	0.490586	0.51514	0.303478
96	N	0.516277	0.489446	0.303474
97	C	0.475821	0.529903	0.091549
98	C	0.489644	0.51608	0.13228
99	C	0.517236	0.488482	0.132275
100	C	0.531054	0.474664	0.091539
101	H	0.455714	0.550009	0.092741
102	H	0.479608	0.526118	0.161962
103	H	0.527277	0.478445	0.161954
104	H	0.551161	0.454558	0.092724
105	C	0.530837	0.057094	0.008228
106	C	0.517495	0.03041	0.05004
107	C	0.489373	0.974163	0.050037
108	C	0.476035	0.947486	0.008222
109	N	0.490593	0.976603	0.303478
110	N	0.516282	0.027985	0.303481
111	C	0.475815	0.94705	0.091544
112	C	0.489633	0.974687	0.132279
113	C	0.517227	0.029874	0.132282
114	C	0.53105	0.057519	0.09155
115	H	0.455707	0.906833	0.092731
116	H	0.479594	0.954608	0.161958
117	H	0.527265	0.049949	0.161964
118	H	0.551157	0.097733	0.092741
119	C	0.94863	0.474884	0.008225
120	C	0.975314	0.488227	0.050037
121	N	0.977738	0.489443	0.303477
122	C	0.97585	0.488494	0.132278
123	C	0.948207	0.474672	0.091547
124	H	0.098889	0.550017	0.092725
125	H	0.955776	0.478457	0.16196
126	H	0.90799	0.454566	0.092738
127	C	0.36396	0.723343	0.333453
128	N	0.389435	0.695293	0.333504
129	C	0.363962	0.641766	0.333455
130	N	0.310435	0.616293	0.333506
131	C	0.282381	0.641766	0.333454
132	N	0.310433	0.695289	0.333506
133	C	0.392088	0.613641	0.333924
134	C	0.447901	0.640444	0.334484
135	C	0.475669	0.612842	0.336031
136	C	0.448363	0.557367	0.336878
137	C	0.392888	0.53006	0.336031
138	C	0.365285	0.557827	0.33448
139	C	0.392087	0.779598	0.333918
140	C	0.447899	0.808608	0.334471
141	C	0.475665	0.863977	0.336014
142	C	0.448359	0.892145	0.336864
143	C	0.392884	0.863973	0.336024
144	C	0.365283	0.808604	0.334481
145	C	0.226128	0.613637	0.333925
146	C	0.197119	0.64044	0.334485
147	C	0.141749	0.612838	0.33601
148	C	0.113576	0.557363	0.336858
149	C	0.141748	0.53006	0.336017
150	C	0.197118	0.557827	0.334476
151	H	0.51593	0.883516	0.337266
152	H	0.469263	0.789741	0.334372
153	H	0.372161	0.883516	0.337256
154	H	0.325052	0.789737	0.334362
155	H	0.215985	0.680672	0.334364
156	H	0.122208	0.633562	0.337253
157	H	0.215984	0.536462	0.334378
158	H	0.122208	0.489797	0.33727
159	H	0.325054	0.536462	0.334369
160	H	0.372164	0.489797	0.337263
161	H	0.515934	0.633566	0.337256
162	H	0.469264	0.680672	0.33436
163	C	0.642905	0.281235	0.333449
164	N	0.617435	0.309289	0.333504
165	C	0.642907	0.362815	0.333454
166	N	0.696432	0.388289	0.333505
167	C	0.724487	0.362815	0.333453
168	N	0.696432	0.309289	0.333502
169	C	0.614781	0.390941	0.333924
170	C	0.558969	0.364138	0.334474
171	C	0.531201	0.391741	0.336024
172	C	0.558503	0.447216	0.336854
173	C	0.613979	0.474518	0.33601
174	C	0.641582	0.446751	0.334477
175	C	0.614783	0.224984	0.333921
176	C	0.558968	0.195974	0.334486
177	C	0.531201	0.140605	0.336027
178	C	0.558509	0.112437	0.336878
179	C	0.613981	0.140605	0.336031
180	C	0.641584	0.195974	0.334475
181	C	0.780739	0.39094	0.33392
182	C	0.809747	0.364137	0.334482
183	C	0.865117	0.391739	0.336031
184	C	0.893286	0.447212	0.336874
185	C	0.865119	0.474518	0.336004
186	C	0.809748	0.446751	0.334473
187	H	0.490936	0.121063	0.337253
188	H	0.537603	0.214839	0.334356
189	H	0.634708	0.121065	0.337266
190	H	0.681815	0.214841	0.334369
191	H	0.790883	0.323907	0.334362
192	H	0.884659	0.371015	0.337263
193	H	0.790884	0.468117	0.334369
194	H	0.884658	0.514782	0.33727
195	H	0.681812	0.468117	0.334369
196	H	0.6347	0.514782	0.337253
197	H	0.490936	0.371016	0.337259
198	H	0.537603	0.323907	0.334375
199	C	0.530835	0.474888	0.341549
200	C	0.517497	0.488227	0.383366
201	C	0.489374	0.516348	0.383369
202	C	0.476033	0.529694	0.341559
203	N	0.490586	0.51514	0.636811
204	N	0.516277	0.489446	0.636807
205	C	0.475821	0.529903	0.424882
206	C	0.489644	0.51608	0.465614
207	C	0.517236	0.488482	0.465607
208	C	0.531054	0.474664	0.424872
209	H	0.455714	0.550009	0.426074
210	H	0.479608	0.526118	0.495296
211	H	0.527277	0.478445	0.495286
212	H	0.551161	0.454558	0.426057
213	C	0.530837	0.057094	0.341559
214	C	0.517495	0.03041	0.383373
215	C	0.489373	0.974163	0.383369
216	C	0.476035	0.947486	0.341556
217	N	0.490593	0.976603	0.636811
218	N	0.516282	0.027985	0.636814
219	C	0.475815	0.94705	0.424875
220	C	0.489633	0.974687	0.465611
221	C	0.517227	0.029874	0.465614
222	C	0.53105	0.057519	0.424882
223	H	0.455707	0.906833	0.426064
224	H	0.479594	0.954608	0.495293
225	H	0.527265	0.049949	0.495296
226	H	0.551157	0.097733	0.426074
227	C	0.94863	0.474884	0.341559
228	C	0.975314	0.488227	0.383369
229	N	0.977738	0.489443	0.636811
230	C	0.97585	0.488494	0.465611
231	C	0.948207	0.474672	0.424879
232	H	0.098889	0.550017	0.426057
233	H	0.955776	0.478457	0.495293
234	H	0.90799	0.454566	0.426071
235	C	0.36396	0.723343	0.666787
236	N	0.389435	0.695293	0.666837
237	C	0.363962	0.641766	0.666787
238	N	0.310435	0.616293	0.666841
239	C	0.282381	0.641766	0.666787
240	N	0.310433	0.695289	0.666837
241	C	0.392088	0.613641	0.667256
242	C	0.447901	0.640444	0.667818
243	C	0.475669	0.612842	0.669362
244	C	0.448363	0.557367	0.670209
245	C	0.392888	0.53006	0.669365
246	C	0.365285	0.557827	0.667812
247	C	0.392087	0.779598	0.667249
248	C	0.447899	0.808608	0.667805
249	C	0.475665	0.863977	0.669345
250	C	0.448359	0.892145	0.670196
251	C	0.392884	0.863973	0.669355
252	C	0.365283	0.808604	0.667815
253	C	0.226128	0.613637	0.667259
254	C	0.197119	0.64044	0.667818
255	C	0.141749	0.612838	0.669345
256	C	0.113576	0.557363	0.670189
257	C	0.141748	0.53006	0.669352
258	C	0.197118	0.557827	0.667808
259	H	0.51593	0.883516	0.670598
260	H	0.469263	0.789741	0.667705
261	H	0.372161	0.883516	0.670591
262	H	0.325052	0.789737	0.667695
263	H	0.215985	0.680672	0.667698
264	H	0.122208	0.633562	0.670588
265	H	0.215984	0.536462	0.667711
266	H	0.122208	0.489797	0.670601
267	H	0.325054	0.536462	0.667701
268	H	0.372164	0.489797	0.670598
269	H	0.515934	0.633566	0.670588
270	H	0.469264	0.680672	0.667695
271	C	0.642905	0.281235	0.666784
272	N	0.617435	0.309289	0.666837
273	C	0.642907	0.362815	0.666787
274	N	0.696432	0.388289	0.666837
275	C	0.724487	0.362815	0.666787
276	N	0.696432	0.309289	0.666834
277	C	0.614781	0.390941	0.667256
278	C	0.558969	0.364138	0.667808
279	C	0.531201	0.391741	0.669359
280	C	0.558503	0.447216	0.670186
281	C	0.613979	0.474518	0.669342
282	C	0.641582	0.446751	0.667812
283	C	0.614783	0.224984	0.667256
284	C	0.558968	0.195974	0.667818
285	C	0.531201	0.140605	0.669362
286	C	0.558509	0.112437	0.670209
287	C	0.613981	0.140605	0.669365
288	C	0.641584	0.195974	0.667808
289	C	0.780739	0.39094	0.667253
290	C	0.809747	0.364137	0.667815
291	C	0.865117	0.391739	0.669362
292	C	0.893286	0.447212	0.670206
293	C	0.865119	0.474518	0.669335
294	C	0.809748	0.446751	0.667805
295	H	0.490936	0.121063	0.670588
296	H	0.537603	0.214839	0.667688
297	H	0.634708	0.121065	0.670598
298	H	0.681815	0.214841	0.667701
299	H	0.790883	0.323907	0.667695
300	H	0.884659	0.371015	0.670598
301	H	0.790884	0.468117	0.667701
302	H	0.884658	0.514782	0.670601
303	H	0.681812	0.468117	0.667701
304	H	0.6347	0.514782	0.670588
305	H	0.490936	0.371016	0.670594
306	H	0.537603	0.323907	0.667708
307	C	0.530835	0.474888	0.674881
308	C	0.517497	0.488227	0.716698
309	C	0.489374	0.516348	0.716704
310	C	0.476033	0.529694	0.674891
311	N	0.490586	0.51514	0.970145
312	N	0.516277	0.489446	0.970139
313	C	0.475821	0.529903	0.758213
314	C	0.489644	0.51608	0.798946
315	C	0.517236	0.488482	0.798939
316	C	0.531054	0.474664	0.758203
317	H	0.455714	0.550009	0.759406
318	H	0.479608	0.526118	0.828628
319	H	0.527277	0.478445	0.828621
320	H	0.551161	0.454558	0.759389
321	C	0.530837	0.057094	0.674894
322	C	0.517495	0.03041	0.716704
323	C	0.489373	0.974163	0.716704
324	C	0.476035	0.947486	0.674887
325	N	0.490593	0.976603	0.970142
326	N	0.516282	0.027985	0.970145
327	C	0.475815	0.94705	0.75821
328	C	0.489633	0.974687	0.798946
329	C	0.517227	0.029874	0.798949
330	C	0.53105	0.057519	0.758217
331	H	0.455707	0.906833	0.759396
332	H	0.479594	0.954608	0.828624
333	H	0.527265	0.049949	0.828631
334	H	0.551157	0.097733	0.759406
335	C	0.94863	0.474884	0.674891
336	C	0.975314	0.488227	0.716701
337	N	0.977738	0.489443	0.970142
338	C	0.97585	0.488494	0.798946
339	C	0.948207	0.474672	0.758213
340	H	0.098889	0.550017	0.759392
341	H	0.955776	0.478457	0.828628
342	H	0.90799	0.454566	0.759406
