data_C174H96N42_2018-02-15_10:47:45
#******************************************
#
# CIF file created by Zeo++
# Zeo++ is an open source package to
# analyze microporous materials
#
#*******************************************

_cell_length_a		25.6344   
_cell_length_b		25.6342   
_cell_length_c		29.257   
_cell_angle_alpha		90   
_cell_angle_beta		90   
_cell_angle_gamma		90.0373   

_symmetry_space_group_name_H-M		'P1'
_symmetry_Int_Tables_number		1
_symmetry_cell_setting		Monoclinic

loop_
_symmetry_equiv_pos_as_xyz
'+x,+y,+z'

loop_
_atom_site_label
_atom_site_type_symbol
_atom_site_fract_x
_atom_site_fract_y
_atom_site_fract_z
1	C	0.917157	0.875318	0.339024
2	C	0.878281	0.912584	0.33911
3	C	0.90159	0.961893	0.339961
4	N	0.953721	0.952418	0.34138
5	C	0.965386	0.900717	0.34039
6	C	0.014791	0.875135	0.339838
7	C	0.063634	0.901607	0.340245
8	N	0.072817	0.953635	0.341291
9	C	0.124429	0.96496	0.340402
10	C	0.150019	0.916891	0.338882
11	C	0.112715	0.878002	0.3391
12	C	0.148761	0.014898	0.339878
13	C	0.121086	0.063193	0.340135
14	N	0.068957	0.072708	0.341488
15	C	0.057297	0.124393	0.339807
16	C	0.105534	0.149752	0.338119
17	C	0.144414	0.112465	0.3386
18	C	0.007875	0.149939	0.338944
19	C	0.959017	0.123437	0.33952
20	N	0.949816	0.071408	0.34051
21	C	0.898191	0.060076	0.339704
22	C	0.872577	0.108111	0.338249
23	C	0.909888	0.146994	0.33852
24	C	0.873858	0.010157	0.339162
25	C	0.8181	0.008355	0.334761
26	C	0.784776	0.017783	0.039068
27	C	0.730051	0.014277	0.034399
28	C	0.706846	0.000802	0.325373
29	C	0.740526	0.991877	0.28776
30	C	0.79508	0.995875	0.292251
31	C	0.00696	0.205711	0.334474
32	C	0.016318	0.238943	0.038864
33	C	0.013101	0.293693	0.034241
34	C	5.3e-05	0.317006	0.325166
35	C	0.991277	0.283416	0.287456
36	C	0.994963	0.228839	0.29191
37	C	0.204498	0.016457	0.335393
38	C	0.227415	0.026633	0.292401
39	C	0.282015	0.027327	0.287155
40	C	0.315941	0.017583	0.324491
41	C	0.292657	0.007325	0.034208
42	C	0.237904	0.006826	0.039593
43	C	0.015533	0.819389	0.335325
44	C	0.025363	0.796419	0.292299
45	C	0.006015	0.786039	0.039592
46	C	0.00626	0.731276	0.034228
47	C	0.016174	0.70794	0.324475
48	C	0.025797	0.741817	0.287074
49	H	0.03311	0.727016	0.255196
50	H	0.032236	0.819397	0.26431
51	H	0.99881	0.708568	0.062239
52	H	0.998558	0.801506	0.07117
53	H	0.910488	0.836034	0.337781
54	H	0.839312	0.904225	0.338132
55	H	0.979653	0.979472	0.342109
56	H	0.043023	0.04567	0.342629
57	H	0.120755	0.838984	0.337977
58	H	0.189316	0.910439	0.337461
59	H	0.204397	0.03346	0.264434
60	H	0.296777	0.034832	0.255296
61	H	0.222483	0.999008	0.071125
62	H	0.315398	0.999741	0.062167
63	H	0.183393	0.12074	0.337343
64	H	0.112173	0.189003	0.336205
65	H	0.83327	0.114537	0.336917
66	H	0.901787	0.186003	0.337511
67	H	0.02476	0.223381	0.070215
68	H	0.019142	0.31637	0.062539
69	H	0.987763	0.205946	0.263932
70	H	0.981617	0.298417	0.256132
71	H	0.818037	0.988713	0.264312
72	H	0.725602	0.98196	0.256462
73	H	0.707312	0.020453	0.062632
74	H	0.800258	0.026654	0.070364
75	C	0.99348	0.370757	0.319662
76	C	0.369987	0.01774	0.317321
77	C	0.016203	0.653887	0.317334
78	C	0.653094	0.99421	0.319798
79	H	0.970097	0.382832	0.294648
80	H	0.382731	0.021097	0.285294
81	H	0.01909	0.641139	0.285274
82	H	0.641017	0.970862	0.294747
83	C	0.014009	0.457634	0.34242
84	N	0.011443	0.483775	0.049529
85	C	0.010604	0.536693	0.053211
86	C	0.013199	0.567378	0.013308
87	N	0.016801	0.5413	0.30619
88	C	0.017292	0.488456	0.30216
89	H	0.00854	0.553525	0.084821
90	C	0.022998	0.46961	0.261244
91	N	0.027972	0.453152	0.225
92	N	0.015968	0.405489	0.344738
93	N	0.013193	0.619469	0.016069
94	C	0.566229	0.014802	0.342475
95	N	0.540047	0.01208	0.049553
96	C	0.487125	0.011312	0.053191
97	C	0.456493	0.014175	0.013275
98	N	0.482613	0.017932	0.306187
99	C	0.535464	0.018376	0.302205
100	H	0.470256	0.009096	0.08478
101	C	0.554391	0.024171	0.261325
102	N	0.570923	0.029229	0.225113
103	N	0.618371	0.01671	0.344837
104	N	0.404407	0.014201	0.016012
105	C	0.917157	0.875318	0.672358
106	C	0.878281	0.912584	0.672443
107	C	0.90159	0.961893	0.673294
108	N	0.953721	0.952418	0.674713
109	C	0.965386	0.900717	0.673722
110	C	0.014791	0.875135	0.673171
111	C	0.063634	0.901607	0.673578
112	N	0.072817	0.953635	0.674624
113	C	0.124429	0.96496	0.673735
114	C	0.150019	0.916891	0.672218
115	C	0.112715	0.878002	0.672433
116	C	0.148761	0.014898	0.673212
117	C	0.121086	0.063193	0.673469
118	N	0.068957	0.072708	0.674822
119	C	0.057297	0.124393	0.673141
120	C	0.105534	0.149752	0.671452
121	C	0.144414	0.112465	0.671934
122	C	0.007875	0.149939	0.672279
123	C	0.959017	0.123437	0.672854
124	N	0.949816	0.071408	0.673845
125	C	0.898191	0.060076	0.673038
126	C	0.872577	0.108111	0.671582
127	C	0.909888	0.146994	0.671852
128	C	0.873858	0.010157	0.672495
129	C	0.8181	0.008355	0.668096
130	C	0.784776	0.017783	0.372403
131	C	0.730051	0.014277	0.367734
132	C	0.706846	0.000802	0.658707
133	C	0.740526	0.991877	0.621092
134	C	0.79508	0.995875	0.625586
135	C	0.00696	0.205711	0.667809
136	C	0.016318	0.238943	0.372198
137	C	0.013101	0.293693	0.367573
138	C	5.3e-05	0.317006	0.658498
139	C	0.991277	0.283416	0.620791
140	C	0.994963	0.228839	0.625245
141	C	0.204498	0.016457	0.668728
142	C	0.227415	0.026633	0.625733
143	C	0.282015	0.027327	0.62049
144	C	0.315941	0.017583	0.657825
145	C	0.292657	0.007325	0.367542
146	C	0.237904	0.006826	0.372926
147	C	0.015533	0.819389	0.66866
148	C	0.025363	0.796419	0.625631
149	C	0.006015	0.786039	0.372926
150	C	0.00626	0.731276	0.367563
151	C	0.016174	0.70794	0.657808
152	C	0.025797	0.741817	0.620408
153	H	0.03311	0.727016	0.588529
154	H	0.032236	0.819397	0.597644
155	H	0.99881	0.708568	0.395573
156	H	0.998558	0.801506	0.404504
157	H	0.910488	0.836034	0.671114
158	H	0.839312	0.904225	0.671466
159	H	0.979653	0.979472	0.675444
160	H	0.043023	0.04567	0.675961
161	H	0.120755	0.838984	0.671312
162	H	0.189316	0.910439	0.670796
163	H	0.204397	0.03346	0.597767
164	H	0.296777	0.034832	0.588628
165	H	0.222483	0.999008	0.40446
166	H	0.315398	0.999741	0.395501
167	H	0.183393	0.12074	0.670676
168	H	0.112173	0.189003	0.669538
169	H	0.83327	0.114537	0.670252
170	H	0.901787	0.186003	0.670844
171	H	0.02476	0.223381	0.403547
172	H	0.019142	0.31637	0.395874
173	H	0.987763	0.205946	0.597265
174	H	0.981617	0.298417	0.589465
175	H	0.818037	0.988713	0.597644
176	H	0.725602	0.98196	0.589797
177	H	0.707312	0.020453	0.395966
178	H	0.800258	0.026654	0.403698
179	C	0.99348	0.370757	0.652995
180	C	0.369987	0.01774	0.650654
181	C	0.016203	0.653887	0.650667
182	C	0.653094	0.99421	0.653132
183	H	0.970097	0.382832	0.627982
184	H	0.382731	0.021097	0.618627
185	H	0.01909	0.641139	0.618607
186	H	0.641017	0.970862	0.628081
187	C	0.014009	0.457634	0.675755
188	N	0.011443	0.483775	0.382862
189	C	0.010604	0.536693	0.386546
190	C	0.013199	0.567378	0.346641
191	N	0.016801	0.5413	0.639525
192	C	0.017292	0.488456	0.635495
193	H	0.00854	0.553525	0.418156
194	C	0.022998	0.46961	0.594578
195	N	0.027972	0.453152	0.558334
196	N	0.015968	0.405489	0.678069
197	N	0.013193	0.619469	0.349403
198	C	0.566229	0.014802	0.67581
199	N	0.540047	0.01208	0.382886
200	C	0.487125	0.011312	0.386526
201	C	0.456493	0.014175	0.346607
202	N	0.482613	0.017932	0.639521
203	C	0.535464	0.018376	0.635539
204	H	0.470256	0.009096	0.418115
205	C	0.554391	0.024171	0.594657
206	N	0.570923	0.029229	0.558447
207	N	0.618371	0.01671	0.678172
208	N	0.404407	0.014201	0.349345
209	C	0.917157	0.875318	0.005693
210	C	0.878281	0.912584	0.005775
211	C	0.90159	0.961893	0.00663
212	N	0.953721	0.952418	0.008048
213	C	0.965386	0.900717	0.007057
214	C	0.014791	0.875135	0.006507
215	C	0.063634	0.901607	0.006913
216	N	0.072817	0.953635	0.007959
217	C	0.124429	0.96496	0.007071
218	C	0.150019	0.916891	0.00555
219	C	0.112715	0.878002	0.005768
220	C	0.148761	0.014898	0.006544
221	C	0.121086	0.063193	0.006801
222	N	0.068957	0.072708	0.008154
223	C	0.057297	0.124393	0.006476
224	C	0.105534	0.149752	0.004787
225	C	0.144414	0.112465	0.005266
226	C	0.007875	0.149939	0.005611
227	C	0.959017	0.123437	0.006189
228	N	0.949816	0.071408	0.007177
229	C	0.898191	0.060076	0.00637
230	C	0.872577	0.108111	0.004917
231	C	0.909888	0.146994	0.005187
232	C	0.873858	0.010157	0.00583
233	C	0.8181	0.008355	0.001428
234	C	0.784776	0.017783	0.705735
235	C	0.730051	0.014277	0.701066
236	C	0.706846	0.000802	0.992042
237	C	0.740526	0.991877	0.954427
238	C	0.79508	0.995875	0.958918
239	C	0.00696	0.205711	0.00114
240	C	0.016318	0.238943	0.705533
241	C	0.013101	0.293693	0.700908
242	C	5.3e-05	0.317006	0.991833
243	C	0.991277	0.283416	0.954123
244	C	0.994963	0.228839	0.958576
245	C	0.204498	0.016457	0.00206
246	C	0.227415	0.026633	0.959069
247	C	0.282015	0.027327	0.953822
248	C	0.315941	0.017583	0.99116
249	C	0.292657	0.007325	0.700874
250	C	0.237904	0.006826	0.706261
251	C	0.015533	0.819389	0.001992
252	C	0.025363	0.796419	0.958966
253	C	0.006015	0.786039	0.706258
254	C	0.00626	0.731276	0.700895
255	C	0.016174	0.70794	0.991143
256	C	0.025797	0.741817	0.95374
257	H	0.03311	0.727016	0.921864
258	H	0.032236	0.819397	0.930976
259	H	0.99881	0.708568	0.728905
260	H	0.998558	0.801506	0.737836
261	H	0.910488	0.836034	0.004449
262	H	0.839312	0.904225	0.004801
263	H	0.979653	0.979472	0.00878
264	H	0.043023	0.04567	0.009296
265	H	0.120755	0.838984	0.004644
266	H	0.189316	0.910439	0.004128
267	H	0.204397	0.03346	0.931103
268	H	0.296777	0.034832	0.921963
269	H	0.222483	0.999008	0.737792
270	H	0.315398	0.999741	0.728833
271	H	0.183393	0.12074	0.004012
272	H	0.112173	0.189003	0.002873
273	H	0.83327	0.114537	0.003584
274	H	0.901787	0.186003	0.004179
275	H	0.02476	0.223381	0.736883
276	H	0.019142	0.31637	0.729206
277	H	0.987763	0.205946	0.9306
278	H	0.981617	0.298417	0.9228
279	H	0.818037	0.988713	0.93098
280	H	0.725602	0.98196	0.923128
281	H	0.707312	0.020453	0.729298
282	H	0.800258	0.026654	0.73703
283	C	0.99348	0.370757	0.98633
284	C	0.369987	0.01774	0.983989
285	C	0.016203	0.653887	0.984003
286	C	0.653094	0.99421	0.986464
287	H	0.970097	0.382832	0.961314
288	H	0.382731	0.021097	0.951963
289	H	0.01909	0.641139	0.951942
290	H	0.641017	0.970862	0.961413
291	C	0.014009	0.457634	0.009091
292	N	0.011443	0.483775	0.716197
293	C	0.010604	0.536693	0.719878
294	C	0.013199	0.567378	0.679977
295	N	0.016801	0.5413	0.972857
296	C	0.017292	0.488456	0.968827
297	H	0.00854	0.553525	0.751488
298	C	0.022998	0.46961	0.92791
299	N	0.027972	0.453152	0.891666
300	N	0.015968	0.405489	0.011405
301	N	0.013193	0.619469	0.682735
302	C	0.566229	0.014802	0.009142
303	N	0.540047	0.01208	0.716221
304	C	0.487125	0.011312	0.719858
305	C	0.456493	0.014175	0.679942
306	N	0.482613	0.017932	0.972853
307	C	0.535464	0.018376	0.968871
308	H	0.470256	0.009096	0.751447
309	C	0.554391	0.024171	0.927992
310	N	0.570923	0.029229	0.891779
311	N	0.618371	0.01671	0.011504
312	N	0.404407	0.014201	0.68268
