data_C162H126N36_2018-02-15_10:34:05
#******************************************
#
# CIF file created by Zeo++
# Zeo++ is an open source package to
# analyze microporous materials
#
#*******************************************

_cell_length_a		28.9003   
_cell_length_b		28.9003   
_cell_length_c		30.0282   
_cell_angle_alpha		90   
_cell_angle_beta		90   
_cell_angle_gamma		120   

_symmetry_space_group_name_H-M		'P1'
_symmetry_Int_Tables_number		1
_symmetry_cell_setting		Monoclinic

loop_
_symmetry_equiv_pos_as_xyz
'+x,+y,+z'

loop_
_atom_site_label
_atom_site_type_symbol
_atom_site_fract_x
_atom_site_fract_y
_atom_site_fract_z
1	C	0.353255	0.630923	0.05959
2	C	0.297529	0.610666	0.059685
3	C	0.276734	0.645578	0.059629
4	C	0.312203	0.701303	0.059702
5	C	0.36791	0.722099	0.059614
6	C	0.388167	0.686631	0.059658
7	H	0.297297	0.726806	0.060381
8	H	0.428574	0.701538	0.060341
9	H	0.272029	0.57026	0.060355
10	N	0.375659	0.597337	0.061125
11	H	0.360135	0.571962	0.087897
12	N	0.401498	0.778087	0.061146
13	H	0.426883	0.78794	0.087912
14	N	0.220745	0.623176	0.061167
15	H	0.210897	0.638694	0.087946
16	C	0.639873	0.363283	0.935905
17	C	0.696243	0.388972	0.935658
18	C	0.722486	0.358968	0.935925
19	C	0.691807	0.302599	0.935678
20	C	0.635555	0.276352	0.935915
21	C	0.609869	0.307034	0.935665
22	H	0.71062	0.280587	0.936268
23	H	0.569044	0.28822	0.936244
24	H	0.718253	0.429795	0.936261
25	N	0.612097	0.391932	0.937736
26	H	0.624851	0.4191	0.912094
27	N	0.606907	0.219928	0.937746
28	H	0.579743	0.205516	0.9121
29	N	0.778912	0.386742	0.937763
30	H	0.793329	0.37399	0.91212
31	C	0.579291	0.439992	0.987087
32	C	0.540467	0.433791	0.288643
33	N	0.507693	0.453836	0.296506
34	C	0.509469	0.480322	0.001086
35	C	0.547207	0.487562	0.034596
36	C	0.581764	0.467049	0.027052
37	H	0.609259	0.472019	0.05087
38	C	0.474744	0.500915	0.340557
39	C	0.405108	0.514583	0.312659
40	C	0.406281	0.543526	0.35099
41	C	0.443267	0.550226	0.051499
42	H	0.536143	0.414233	0.259296
43	N	0.438738	0.494857	0.308698
44	C	0.477693	0.529063	0.046865
45	C	0.515004	0.535711	0.080177
46	C	0.549453	0.515042	0.074119
47	H	0.517624	0.555888	0.108934
48	H	0.576421	0.52062	0.09858
49	H	0.445894	0.571263	0.079666
50	H	0.37948	0.50873	0.287018
51	C	0.37039	0.56666	0.353192
52	H	0.328982	0.534309	0.349778
53	H	0.379869	0.593254	0.324472
54	C	0.616599	0.419032	0.980966
55	H	0.608701	0.390621	0.008026
56	H	0.657503	0.452286	0.984839
57	C	0.558837	0.139061	0.987097
58	C	0.565041	0.106438	0.288655
59	N	0.544995	0.053621	0.296519
60	C	0.518506	0.028911	0.001098
61	C	0.511261	0.05941	0.034606
62	C	0.531771	0.114479	0.027059
63	H	0.526807	0.137007	0.050877
64	C	0.49791	0.973593	0.34057
65	C	0.484237	0.890288	0.312672
66	C	0.45528	0.862515	0.350997
67	C	0.448592	0.892805	0.051511
68	H	0.584602	0.121671	0.25931
69	N	0.503971	0.943647	0.308712
70	C	0.469756	0.948394	0.046876
71	C	0.463112	0.979059	0.080188
72	C	0.483779	0.034176	0.074128
73	H	0.442927	0.961503	0.108943
74	H	0.478201	0.055567	0.098587
75	H	0.427557	0.874398	0.079678
76	H	0.490094	0.870514	0.287032
77	C	0.432164	0.803495	0.353208
78	H	0.464525	0.794453	0.349795
79	H	0.405569	0.78637	0.324491
80	C	0.579799	0.19733	0.980976
81	H	0.608211	0.217843	0.008036
82	H	0.546546	0.204984	0.984842
83	C	0.859773	0.419551	0.987123
84	C	0.892393	0.458383	0.288685
85	N	0.945211	0.491154	0.296549
86	C	0.969924	0.489364	0.001123
87	C	0.939425	0.451611	0.034626
88	C	0.884353	0.417058	0.027081
89	H	0.861831	0.38955	0.050892
90	C	0.025239	0.524084	0.340594
91	C	0.108538	0.593737	0.312708
92	C	0.136314	0.592542	0.351027
93	C	0.106029	0.555544	0.051529
94	H	0.877157	0.462714	0.259342
95	N	0.055182	0.560107	0.308744
96	C	0.050439	0.52112	0.046896
97	C	0.019779	0.483798	0.080202
98	C	0.964662	0.449345	0.07414
99	H	0.037337	0.481169	0.108955
100	H	0.943273	0.42238	0.0986
101	H	0.124439	0.552923	0.0797
102	H	0.12831	0.619384	0.287075
103	C	0.195334	0.628458	0.353238
104	H	0.20437	0.669862	0.349852
105	H	0.212462	0.619012	0.324512
106	C	0.801503	0.382236	0.980996
107	H	0.780984	0.390124	0.008054
108	H	0.793858	0.341332	0.984862
109	C	0.353255	0.630923	0.392924
110	C	0.297529	0.610666	0.393018
111	C	0.276734	0.645578	0.392961
112	C	0.312203	0.701303	0.393034
113	C	0.36791	0.722099	0.392948
114	C	0.388167	0.686631	0.392991
115	H	0.297297	0.726806	0.393714
116	H	0.428574	0.701538	0.393674
117	H	0.272029	0.57026	0.393687
118	N	0.375659	0.597337	0.394456
119	H	0.360135	0.571962	0.421231
120	N	0.401498	0.778087	0.39448
121	H	0.426883	0.78794	0.421245
122	N	0.220745	0.623176	0.3945
123	H	0.210897	0.638694	0.421278
124	C	0.639873	0.363283	0.269238
125	C	0.696243	0.388972	0.268993
126	C	0.722486	0.358968	0.269259
127	C	0.691807	0.302599	0.269012
128	C	0.635555	0.276352	0.269247
129	C	0.609869	0.307034	0.268997
130	H	0.71062	0.280587	0.269602
131	H	0.569044	0.28822	0.269578
132	H	0.718253	0.429795	0.269595
133	N	0.612097	0.391932	0.27107
134	H	0.624851	0.4191	0.245428
135	N	0.606907	0.219928	0.27108
136	H	0.579743	0.205516	0.245435
137	N	0.778912	0.386742	0.271097
138	H	0.793329	0.37399	0.245456
139	C	0.579291	0.439992	0.320422
140	C	0.540467	0.433791	0.621976
141	N	0.507693	0.453836	0.629839
142	C	0.509469	0.480322	0.334419
143	C	0.547207	0.487562	0.367928
144	C	0.581764	0.467049	0.360385
145	H	0.609259	0.472019	0.384203
146	C	0.474744	0.500915	0.673891
147	C	0.405108	0.514583	0.645994
148	C	0.406281	0.543526	0.684324
149	C	0.443267	0.550226	0.384832
150	H	0.536143	0.414233	0.59263
151	N	0.438738	0.494857	0.642031
152	C	0.477693	0.529063	0.3802
153	C	0.515004	0.535711	0.413508
154	C	0.549453	0.515042	0.407451
155	H	0.517624	0.555888	0.442268
156	H	0.576421	0.52062	0.431915
157	H	0.445894	0.571263	0.412999
158	H	0.37948	0.50873	0.620351
159	C	0.37039	0.56666	0.686525
160	H	0.328982	0.534309	0.683112
161	H	0.379869	0.593254	0.657806
162	C	0.616599	0.419032	0.314301
163	H	0.608701	0.390621	0.34136
164	H	0.657503	0.452286	0.318172
165	C	0.558837	0.139061	0.32043
166	C	0.565041	0.106438	0.621986
167	N	0.544995	0.053621	0.629852
168	C	0.518506	0.028911	0.334433
169	C	0.511261	0.05941	0.367938
170	C	0.531771	0.114479	0.360392
171	H	0.526807	0.137007	0.384209
172	C	0.49791	0.973593	0.673901
173	C	0.484237	0.890288	0.646004
174	C	0.45528	0.862515	0.684331
175	C	0.448592	0.892805	0.384842
176	H	0.584602	0.121671	0.592644
177	N	0.503971	0.943647	0.642044
178	C	0.469756	0.948394	0.38021
179	C	0.463112	0.979059	0.413522
180	C	0.483779	0.034176	0.407461
181	H	0.442927	0.961503	0.442275
182	H	0.478201	0.055567	0.431921
183	H	0.427557	0.874398	0.413012
184	H	0.490094	0.870514	0.620364
185	C	0.432164	0.803495	0.686539
186	H	0.464525	0.794453	0.683125
187	H	0.405569	0.78637	0.657822
188	C	0.579799	0.19733	0.314309
189	H	0.608211	0.217843	0.34137
190	H	0.546546	0.204984	0.318176
191	C	0.859773	0.419551	0.320457
192	C	0.892393	0.458383	0.622016
193	N	0.945211	0.491154	0.629882
194	C	0.969924	0.489364	0.334456
195	C	0.939425	0.451611	0.367958
196	C	0.884353	0.417058	0.360415
197	H	0.861831	0.38955	0.384226
198	C	0.025239	0.524084	0.673927
199	C	0.108538	0.593737	0.64604
200	C	0.136314	0.592542	0.684361
201	C	0.106029	0.555544	0.384862
202	H	0.877157	0.462714	0.592674
203	N	0.055182	0.560107	0.642077
204	C	0.050439	0.52112	0.38023
205	C	0.019779	0.483798	0.413535
206	C	0.964662	0.449345	0.407474
207	H	0.037337	0.481169	0.442288
208	H	0.943273	0.42238	0.431934
209	H	0.124439	0.552923	0.413032
210	H	0.12831	0.619384	0.620408
211	C	0.195334	0.628458	0.686572
212	H	0.20437	0.669862	0.683182
213	H	0.212462	0.619012	0.657846
214	C	0.801503	0.382236	0.314329
215	H	0.780984	0.390124	0.341386
216	H	0.793858	0.341332	0.318195
217	C	0.353255	0.630923	0.726255
218	C	0.297529	0.610666	0.726351
219	C	0.276734	0.645578	0.726295
220	C	0.312203	0.701303	0.726368
221	C	0.36791	0.722099	0.726278
222	C	0.388167	0.686631	0.726325
223	H	0.297297	0.726806	0.727047
224	H	0.428574	0.701538	0.727007
225	H	0.272029	0.57026	0.727021
226	N	0.375659	0.597337	0.72779
227	H	0.360135	0.571962	0.754565
228	N	0.401498	0.778087	0.727813
229	H	0.426883	0.78794	0.754578
230	N	0.220745	0.623176	0.727833
231	H	0.210897	0.638694	0.754612
232	C	0.639873	0.363283	0.602571
233	C	0.696243	0.388972	0.602325
234	C	0.722486	0.358968	0.602591
235	C	0.691807	0.302599	0.602345
236	C	0.635555	0.276352	0.602581
237	C	0.609869	0.307034	0.602331
238	H	0.71062	0.280587	0.602934
239	H	0.569044	0.28822	0.602911
240	H	0.718253	0.429795	0.602927
241	N	0.612097	0.391932	0.604403
242	H	0.624851	0.4191	0.57876
243	N	0.606907	0.219928	0.604413
244	H	0.579743	0.205516	0.578767
245	N	0.778912	0.386742	0.604429
246	H	0.793329	0.37399	0.57879
247	C	0.579291	0.439992	0.653756
248	C	0.540467	0.433791	0.95531
249	N	0.507693	0.453836	0.963172
250	C	0.509469	0.480322	0.667753
251	C	0.547207	0.487562	0.701262
252	C	0.581764	0.467049	0.693719
253	H	0.609259	0.472019	0.717536
254	C	0.474744	0.500915	0.007223
255	C	0.405108	0.514583	0.979324
256	C	0.406281	0.543526	0.017657
257	C	0.443267	0.550226	0.718166
258	H	0.536143	0.414233	0.925961
259	N	0.438738	0.494857	0.975364
260	C	0.477693	0.529063	0.71353
261	C	0.515004	0.535711	0.746842
262	C	0.549453	0.515042	0.740785
263	H	0.517624	0.555888	0.775599
264	H	0.576421	0.52062	0.765245
265	H	0.445894	0.571263	0.746333
266	H	0.37948	0.50873	0.953685
267	C	0.37039	0.56666	0.019858
268	H	0.328982	0.534309	0.016447
269	H	0.379869	0.593254	0.991136
270	C	0.616599	0.419032	0.647635
271	H	0.608701	0.390621	0.67469
272	H	0.657503	0.452286	0.651505
273	C	0.558837	0.139061	0.653763
274	C	0.565041	0.106438	0.95532
275	N	0.544995	0.053621	0.963186
276	C	0.518506	0.028911	0.667763
277	C	0.511261	0.05941	0.701272
278	C	0.531771	0.114479	0.693725
279	H	0.526807	0.137007	0.717543
280	C	0.49791	0.973593	0.007236
281	C	0.484237	0.890288	0.979337
282	C	0.45528	0.862515	0.017664
283	C	0.448592	0.892805	0.718176
284	H	0.584602	0.121671	0.925974
285	N	0.503971	0.943647	0.975378
286	C	0.469756	0.948394	0.71354
287	C	0.463112	0.979059	0.746856
288	C	0.483779	0.034176	0.740795
289	H	0.442927	0.961503	0.775609
290	H	0.478201	0.055567	0.765252
291	H	0.427557	0.874398	0.746343
292	H	0.490094	0.870514	0.953698
293	C	0.432164	0.803495	0.019874
294	H	0.464525	0.794453	0.016461
295	H	0.405569	0.78637	0.991156
296	C	0.579799	0.19733	0.647642
297	H	0.608211	0.217843	0.6747
298	H	0.546546	0.204984	0.651508
299	C	0.859773	0.419551	0.65379
300	C	0.892393	0.458383	0.95535
301	N	0.945211	0.491154	0.963216
302	C	0.969924	0.489364	0.66779
303	C	0.939425	0.451611	0.701292
304	C	0.884353	0.417058	0.693745
305	H	0.861831	0.38955	0.717556
306	C	0.025239	0.524084	0.00726
307	C	0.108538	0.593737	0.979374
308	C	0.136314	0.592542	0.017694
309	C	0.106029	0.555544	0.718196
310	H	0.877157	0.462714	0.926007
311	N	0.055182	0.560107	0.975411
312	C	0.050439	0.52112	0.713563
313	C	0.019779	0.483798	0.746869
314	C	0.964662	0.449345	0.740805
315	H	0.037337	0.481169	0.775622
316	H	0.943273	0.42238	0.765265
317	H	0.124439	0.552923	0.746366
318	H	0.12831	0.619384	0.953741
319	C	0.195334	0.628458	0.019907
320	H	0.20437	0.669862	0.016517
321	H	0.212462	0.619012	0.991179
322	C	0.801503	0.382236	0.647662
323	H	0.780984	0.390124	0.67472
324	H	0.793858	0.341332	0.651528
