data_C162H90N36_2018-02-15_10:42:30
#******************************************
#
# CIF file created by Zeo++
# Zeo++ is an open source package to
# analyze microporous materials
#
#*******************************************

_cell_length_a		29.3277   
_cell_length_b		29.3277   
_cell_length_c		29.8814   
_cell_angle_alpha		90   
_cell_angle_beta		90   
_cell_angle_gamma		120   

_symmetry_space_group_name_H-M		'P1'
_symmetry_Int_Tables_number		1
_symmetry_cell_setting		Monoclinic

loop_
_symmetry_equiv_pos_as_xyz
'+x,+y,+z'

loop_
_atom_site_label
_atom_site_type_symbol
_atom_site_fract_x
_atom_site_fract_y
_atom_site_fract_z
1	C	0.028549	0.51477	0.042341
2	C	0.02853	0.514762	0.295089
3	C	0.028549	0.51477	0.375675
4	C	0.02853	0.514762	0.628423
5	C	0.028549	0.51477	0.709008
6	C	0.02853	0.514762	0.961757
7	H	0.047224	0.524109	0.07265
8	H	0.047186	0.524089	0.264772
9	H	0.047224	0.524109	0.405984
10	H	0.047186	0.524089	0.598107
11	H	0.047224	0.524109	0.739318
12	H	0.047186	0.524089	0.931441
13	C	0.057516	0.529255	0.335375
14	C	0.057516	0.529255	0.668709
15	C	0.057516	0.529255	0.002042
16	C	0.363493	0.723022	0.001973
17	N	0.389006	0.695001	0.001973
18	C	0.363494	0.641462	0.001973
19	N	0.309956	0.615949	0.001973
20	C	0.281932	0.641462	0.001973
21	N	0.309958	0.695001	0.001973
22	C	0.391608	0.613346	0.001983
23	C	0.447452	0.640202	0.001991
24	C	0.47524	0.612575	0.002013
25	C	0.447901	0.557056	0.002028
26	C	0.392382	0.529716	0.002013
27	C	0.364753	0.557505	0.001991
28	C	0.391609	0.779254	0.001983
29	C	0.447451	0.808239	0.001991
30	C	0.475238	0.863656	0.002013
31	C	0.447901	0.891839	0.002028
32	C	0.392382	0.863656	0.002013
33	C	0.364751	0.808239	0.001991
34	C	0.225703	0.613346	0.001983
35	C	0.196714	0.640202	0.001991
36	C	0.141299	0.612575	0.002013
37	C	0.113118	0.557056	0.002028
38	C	0.141298	0.529716	0.002013
39	C	0.196715	0.557505	0.001991
40	H	0.515549	0.883248	0.002019
41	H	0.46883	0.789368	0.001984
42	H	0.371662	0.883248	0.002019
43	H	0.324502	0.789368	0.001984
44	H	0.215587	0.680453	0.001984
45	H	0.121707	0.633292	0.002019
46	H	0.215587	0.536125	0.001984
47	H	0.121707	0.489406	0.002019
48	H	0.324502	0.536125	0.001984
49	H	0.371663	0.489406	0.002019
50	H	0.51555	0.633292	0.002019
51	H	0.468829	0.680453	0.001984
52	C	0.642452	0.280939	0.001976
53	N	0.61694	0.308967	0.001976
54	C	0.642451	0.362505	0.001976
55	N	0.69599	0.388015	0.001976
56	C	0.724018	0.362505	0.001976
57	N	0.695991	0.308967	0.001976
58	C	0.614334	0.390622	0.001996
59	C	0.558486	0.363768	0.002011
60	C	0.530694	0.391397	0.002043
61	C	0.55806	0.446896	0.002063
62	C	0.61356	0.474264	0.002043
63	C	0.641188	0.446471	0.002011
64	C	0.614335	0.224704	0.001995
65	C	0.558488	0.19571	0.002011
66	C	0.530695	0.140289	0.002043
67	C	0.55806	0.112156	0.002063
68	C	0.613559	0.140289	0.002043
69	C	0.641188	0.19571	0.002011
70	C	0.780252	0.390622	0.001996
71	C	0.809246	0.363767	0.002012
72	C	0.864666	0.391397	0.002043
73	C	0.892801	0.446896	0.002063
74	C	0.864667	0.474264	0.002043
75	C	0.809247	0.446471	0.002011
76	H	0.490381	0.120696	0.002049
77	H	0.537111	0.214586	0.001999
78	H	0.63428	0.120696	0.002049
79	H	0.681439	0.214586	0.001999
80	H	0.790372	0.323517	0.001999
81	H	0.88426	0.370676	0.002048
82	H	0.790372	0.467846	0.001999
83	H	0.884261	0.514577	0.002048
84	H	0.681438	0.467846	0.001999
85	H	0.634279	0.514577	0.002048
86	H	0.49038	0.370676	0.002049
87	H	0.53711	0.323517	0.001999
88	C	0.490184	0.51477	0.042341
89	N	0.516907	0.488052	0.041302
90	C	0.530411	0.474543	0.002063
91	N	0.516915	0.48804	0.296148
92	C	0.490196	0.514762	0.295089
93	C	0.475702	0.529255	0.335375
94	H	0.480849	0.524109	0.07265
95	H	0.480867	0.524089	0.264772
96	C	0.490185	0.976407	0.042341
97	N	0.516907	0.029848	0.041302
98	C	0.530413	0.05686	0.002063
99	N	0.516916	0.029867	0.296148
100	C	0.490194	0.976426	0.295089
101	C	0.475702	0.94744	0.335375
102	H	0.480848	0.957732	0.07265
103	H	0.480867	0.957772	0.264772
104	N	0.975109	0.488052	0.041302
105	C	0.948097	0.474543	0.002062
106	N	0.975089	0.48804	0.296148
107	C	0.363493	0.723022	0.335305
108	N	0.389006	0.695001	0.335305
109	C	0.363494	0.641462	0.335305
110	N	0.309956	0.615949	0.335305
111	C	0.281932	0.641462	0.335305
112	N	0.309958	0.695001	0.335305
113	C	0.391608	0.613346	0.335315
114	C	0.447452	0.640202	0.335325
115	C	0.47524	0.612575	0.335349
116	C	0.447901	0.557056	0.335362
117	C	0.392382	0.529716	0.335349
118	C	0.364753	0.557505	0.335325
119	C	0.391609	0.779254	0.335315
120	C	0.447451	0.808239	0.335325
121	C	0.475238	0.863656	0.335349
122	C	0.447901	0.891839	0.335362
123	C	0.392382	0.863656	0.335349
124	C	0.364751	0.808239	0.335325
125	C	0.225703	0.613346	0.335315
126	C	0.196714	0.640202	0.335325
127	C	0.141299	0.612575	0.335349
128	C	0.113118	0.557056	0.335362
129	C	0.141298	0.529716	0.335349
130	C	0.196715	0.557505	0.335325
131	H	0.515549	0.883248	0.335352
132	H	0.46883	0.789368	0.335318
133	H	0.371662	0.883248	0.335352
134	H	0.324502	0.789368	0.335318
135	H	0.215587	0.680453	0.335318
136	H	0.121707	0.633292	0.335352
137	H	0.215587	0.536125	0.335318
138	H	0.121707	0.489406	0.335352
139	H	0.324502	0.536125	0.335318
140	H	0.371663	0.489406	0.335352
141	H	0.51555	0.633292	0.335352
142	H	0.468829	0.680453	0.335318
143	C	0.642452	0.280939	0.335308
144	N	0.61694	0.308967	0.335308
145	C	0.642451	0.362505	0.335308
146	N	0.69599	0.388015	0.335308
147	C	0.724018	0.362505	0.335308
148	N	0.695991	0.308967	0.335308
149	C	0.614334	0.390622	0.335328
150	C	0.558486	0.363768	0.335345
151	C	0.530694	0.391397	0.335379
152	C	0.55806	0.446896	0.335395
153	C	0.61356	0.474264	0.335379
154	C	0.641188	0.446471	0.335345
155	C	0.614335	0.224704	0.335328
156	C	0.558488	0.19571	0.335345
157	C	0.530695	0.140289	0.335379
158	C	0.55806	0.112156	0.335395
159	C	0.613559	0.140289	0.335379
160	C	0.641188	0.19571	0.335345
161	C	0.780252	0.390622	0.335328
162	C	0.809246	0.363767	0.335345
163	C	0.864666	0.391397	0.335379
164	C	0.892801	0.446896	0.335395
165	C	0.864667	0.474264	0.335379
166	C	0.809247	0.446471	0.335345
167	H	0.490381	0.120696	0.335382
168	H	0.537111	0.214586	0.335332
169	H	0.63428	0.120696	0.335382
170	H	0.681439	0.214586	0.335332
171	H	0.790372	0.323517	0.335332
172	H	0.88426	0.370676	0.335382
173	H	0.790372	0.467846	0.335332
174	H	0.884261	0.514577	0.335382
175	H	0.681438	0.467846	0.335332
176	H	0.634279	0.514577	0.335382
177	H	0.49038	0.370676	0.335382
178	H	0.53711	0.323517	0.335332
179	C	0.490184	0.51477	0.375675
180	N	0.516907	0.488052	0.374637
181	C	0.530411	0.474543	0.335395
182	N	0.516915	0.48804	0.629481
183	C	0.490196	0.514762	0.628423
184	C	0.475702	0.529255	0.668709
185	H	0.480849	0.524109	0.405984
186	H	0.480867	0.524089	0.598107
187	C	0.490185	0.976407	0.375675
188	N	0.516907	0.029848	0.374637
189	C	0.530413	0.05686	0.335395
190	N	0.516916	0.029867	0.629481
191	C	0.490194	0.976426	0.628423
192	C	0.475702	0.94744	0.668709
193	H	0.480848	0.957732	0.405984
194	H	0.480867	0.957772	0.598107
195	N	0.975109	0.488052	0.374637
196	C	0.948097	0.474543	0.335395
197	N	0.975089	0.48804	0.629481
198	C	0.363493	0.723022	0.668639
199	N	0.389006	0.695001	0.668639
200	C	0.363494	0.641462	0.668639
201	N	0.309956	0.615949	0.668639
202	C	0.281932	0.641462	0.668639
203	N	0.309958	0.695001	0.668639
204	C	0.391608	0.613346	0.668649
205	C	0.447452	0.640202	0.668659
206	C	0.47524	0.612575	0.668682
207	C	0.447901	0.557056	0.668696
208	C	0.392382	0.529716	0.668682
209	C	0.364753	0.557505	0.668659
210	C	0.391609	0.779254	0.668649
211	C	0.447451	0.808239	0.668659
212	C	0.475238	0.863656	0.668682
213	C	0.447901	0.891839	0.668696
214	C	0.392382	0.863656	0.668682
215	C	0.364751	0.808239	0.668659
216	C	0.225703	0.613346	0.668649
217	C	0.196714	0.640202	0.668659
218	C	0.141299	0.612575	0.668682
219	C	0.113118	0.557056	0.668696
220	C	0.141298	0.529716	0.668682
221	C	0.196715	0.557505	0.668659
222	H	0.515549	0.883248	0.668686
223	H	0.46883	0.789368	0.668652
224	H	0.371662	0.883248	0.668686
225	H	0.324502	0.789368	0.668652
226	H	0.215587	0.680453	0.668652
227	H	0.121707	0.633292	0.668686
228	H	0.215587	0.536125	0.668652
229	H	0.121707	0.489406	0.668686
230	H	0.324502	0.536125	0.668652
231	H	0.371663	0.489406	0.668686
232	H	0.51555	0.633292	0.668686
233	H	0.468829	0.680453	0.668652
234	C	0.642452	0.280939	0.668642
235	N	0.61694	0.308967	0.668642
236	C	0.642451	0.362505	0.668642
237	N	0.69599	0.388015	0.668642
238	C	0.724018	0.362505	0.668642
239	N	0.695991	0.308967	0.668642
240	C	0.614334	0.390622	0.668662
241	C	0.558486	0.363768	0.668679
242	C	0.530694	0.391397	0.668713
243	C	0.55806	0.446896	0.668729
244	C	0.61356	0.474264	0.668713
245	C	0.641188	0.446471	0.668679
246	C	0.614335	0.224704	0.668662
247	C	0.558488	0.19571	0.668679
248	C	0.530695	0.140289	0.668713
249	C	0.55806	0.112156	0.668729
250	C	0.613559	0.140289	0.668713
251	C	0.641188	0.19571	0.668679
252	C	0.780252	0.390622	0.668662
253	C	0.809246	0.363767	0.668679
254	C	0.864666	0.391397	0.668713
255	C	0.892801	0.446896	0.668729
256	C	0.864667	0.474264	0.668713
257	C	0.809247	0.446471	0.668679
258	H	0.490381	0.120696	0.668716
259	H	0.537111	0.214586	0.668666
260	H	0.63428	0.120696	0.668716
261	H	0.681439	0.214586	0.668666
262	H	0.790372	0.323517	0.668666
263	H	0.88426	0.370676	0.668716
264	H	0.790372	0.467846	0.668666
265	H	0.884261	0.514577	0.668716
266	H	0.681438	0.467846	0.668666
267	H	0.634279	0.514577	0.668716
268	H	0.49038	0.370676	0.668716
269	H	0.53711	0.323517	0.668666
270	C	0.490184	0.51477	0.709008
271	N	0.516907	0.488052	0.707971
272	C	0.530411	0.474543	0.668729
273	N	0.516915	0.48804	0.962815
274	C	0.490196	0.514762	0.961757
275	C	0.475702	0.529255	0.002042
276	H	0.480849	0.524109	0.739318
277	H	0.480867	0.524089	0.931441
278	C	0.490185	0.976407	0.709008
279	N	0.516907	0.029848	0.707971
280	C	0.530413	0.05686	0.668729
281	N	0.516916	0.029867	0.962815
282	C	0.490194	0.976426	0.961757
283	C	0.475702	0.94744	0.002042
284	H	0.480848	0.957732	0.739318
285	H	0.480867	0.957772	0.931441
286	N	0.975109	0.488052	0.707971
287	C	0.948097	0.474543	0.668729
288	N	0.975089	0.48804	0.962815
