data_C180H153N27O18_2018-02-15_10:34:04
#******************************************
#
# CIF file created by Zeo++
# Zeo++ is an open source package to
# analyze microporous materials
#
#*******************************************

_cell_length_a		29.1793   
_cell_length_b		29.1794   
_cell_length_c		30.0356   
_cell_angle_alpha		90   
_cell_angle_beta		90   
_cell_angle_gamma		120   

_symmetry_space_group_name_H-M		'P1'
_symmetry_Int_Tables_number		1
_symmetry_cell_setting		Monoclinic

loop_
_symmetry_equiv_pos_as_xyz
'+x,+y,+z'

loop_
_atom_site_label
_atom_site_type_symbol
_atom_site_fract_x
_atom_site_fract_y
_atom_site_fract_z
1	C	0.351082	0.629664	0.95072
2	C	0.296216	0.611394	0.95059
3	C	0.277397	0.647432	0.950703
4	C	0.313994	0.702299	0.950577
5	C	0.368851	0.721116	0.950703
6	C	0.387121	0.684519	0.950593
7	H	0.300526	0.728639	0.950334
8	H	0.42693	0.69799	0.950354
9	H	0.269875	0.571584	0.950354
10	N	0.371515	0.59486	0.950307
11	H	0.355366	0.569138	0.923995
12	N	0.403654	0.776351	0.950287
13	H	0.429375	0.78592	0.923975
14	N	0.222163	0.627001	0.950284
15	H	0.212593	0.643147	0.923968
16	C	0.644087	0.366697	0.063751
17	C	0.699462	0.38787	0.063958
18	C	0.721438	0.354438	0.063744
19	C	0.687235	0.299064	0.063931
20	C	0.631828	0.277086	0.063734
21	C	0.610656	0.311289	0.06394
22	H	0.702854	0.274515	0.063658
23	H	0.570488	0.295671	0.063673
24	H	0.72401	0.428035	0.063688
25	N	0.620764	0.399163	0.06332
26	H	0.645164	0.434754	0.078605
27	N	0.599363	0.2213	0.063296
28	H	0.563769	0.210106	0.078578
29	N	0.777223	0.377761	0.063308
30	H	0.788417	0.353369	0.078604
31	C	0.397862	0.539605	0.99606
32	C	0.394042	0.510864	0.034957
33	C	0.425214	0.486669	0.041439
34	C	0.462729	0.492194	0.008348
35	C	0.464001	0.518102	0.301012
36	C	0.43279	0.542209	0.295727
37	H	0.435707	0.56177	0.266706
38	C	0.497256	0.470156	0.012225
39	C	0.519046	0.466662	0.053364
40	C	0.553739	0.446519	0.056056
41	C	0.56996	0.430963	0.350708
42	C	0.551177	0.437493	0.30921
43	C	0.515691	0.457061	0.30629
44	H	0.511639	0.480559	0.082039
45	H	0.567631	0.444311	0.086741
46	H	0.563442	0.427667	0.280637
47	H	0.367529	0.506883	0.059132
48	C	0.499156	0.466602	0.262003
49	C	0.497493	0.518822	0.263175
50	H	0.459752	0.433575	0.254286
51	H	0.526066	0.469147	0.235523
52	H	0.482409	0.523511	0.231167
53	H	0.537535	0.552352	0.267482
54	N	0.415921	0.454319	0.079409
55	O	0.423435	0.479665	0.115109
56	O	0.369822	0.415099	0.07971
57	C	0.605984	0.408534	0.351537
58	H	0.641989	0.434984	0.332995
59	H	0.585671	0.370806	0.333655
60	C	0.36476	0.565185	0.992331
61	H	0.375324	0.592593	0.020404
62	H	0.323114	0.534746	0.995996
63	C	0.458919	0.857957	0.996036
64	C	0.487664	0.88288	0.034931
65	C	0.511863	0.938246	0.041411
66	C	0.506339	0.970236	0.008319
67	C	0.480432	0.945602	0.300984
68	C	0.456319	0.890284	0.295701
69	H	0.436753	0.873636	0.266681
70	C	0.528376	0.026803	0.012197
71	C	0.531871	0.052086	0.053335
72	C	0.55201	0.106921	0.056029
73	C	0.567565	0.138698	0.350681
74	C	0.561041	0.113388	0.309183
75	C	0.541472	0.058334	0.306262
76	H	0.517973	0.030781	0.08201
77	H	0.554219	0.12302	0.086713
78	H	0.570867	0.135478	0.28061
79	H	0.491642	0.860348	0.059107
80	C	0.531933	0.032258	0.261975
81	C	0.479711	0.978372	0.263147
82	H	0.564959	0.025881	0.254258
83	H	0.52939	0.056624	0.235495
84	H	0.475023	0.958598	0.231138
85	H	0.446183	0.984886	0.267451
86	N	0.544215	0.961305	0.079379
87	O	0.518874	0.943477	0.115081
88	O	0.583434	0.954423	0.079679
89	C	0.589997	0.197152	0.35151
90	H	0.563546	0.206707	0.332969
91	H	0.627725	0.214568	0.333631
92	C	0.433332	0.799276	0.992311
93	H	0.405926	0.782437	0.020383
94	H	0.463771	0.788065	0.995976
95	C	0.140555	0.600666	0.99603
96	C	0.115632	0.604492	0.034923
97	C	0.060267	0.573325	0.041405
98	C	0.028276	0.535802	0.008317
99	C	0.052913	0.534528	0.300983
100	C	0.108231	0.565735	0.295698
101	H	0.124877	0.562815	0.266679
102	C	0.971716	0.501272	0.012198
103	C	0.946437	0.479487	0.053339
104	C	0.891601	0.444786	0.056035
105	C	0.859823	0.428557	0.350688
106	C	0.88513	0.447334	0.309189
107	C	0.940184	0.482827	0.306264
108	H	0.967743	0.486903	0.082013
109	H	0.875508	0.4309	0.086721
110	H	0.863041	0.435063	0.280617
111	H	0.138167	0.63101	0.059097
112	C	0.966255	0.499356	0.261976
113	C	0.020142	0.50103	0.263148
114	H	0.972629	0.538758	0.254255
115	H	0.94189	0.472443	0.235498
116	H	0.039912	0.516111	0.231139
117	H	0.013634	0.460991	0.267457
118	N	0.037208	0.582621	0.079371
119	O	0.055042	0.575118	0.115075
120	O	0.044088	0.628722	0.079666
121	C	0.80137	0.392525	0.35152
122	H	0.791819	0.356514	0.332992
123	H	0.78395	0.412827	0.333631
124	C	0.199238	0.633764	0.992304
125	H	0.216079	0.623206	0.02038
126	H	0.210446	0.675414	0.99596
127	C	0.351082	0.629664	0.284054
128	C	0.296216	0.611394	0.283924
129	C	0.277397	0.647432	0.284036
130	C	0.313994	0.702299	0.283912
131	C	0.368851	0.721116	0.284039
132	C	0.387121	0.684519	0.283926
133	H	0.300526	0.728639	0.283668
134	H	0.42693	0.69799	0.283689
135	H	0.269875	0.571584	0.283688
136	N	0.371515	0.59486	0.28364
137	H	0.355366	0.569138	0.25733
138	N	0.403654	0.776351	0.283621
139	H	0.429375	0.78592	0.25731
140	N	0.222163	0.627001	0.283617
141	H	0.212593	0.643147	0.257302
142	C	0.644087	0.366697	0.397083
143	C	0.699462	0.38787	0.397293
144	C	0.721438	0.354438	0.397076
145	C	0.687235	0.299064	0.397263
146	C	0.631828	0.277086	0.397066
147	C	0.610656	0.311289	0.397273
148	H	0.702854	0.274515	0.39699
149	H	0.570488	0.295671	0.397006
150	H	0.72401	0.428035	0.39702
151	N	0.620764	0.399163	0.396653
152	H	0.645164	0.434754	0.411938
153	N	0.599363	0.2213	0.39663
154	H	0.563769	0.210106	0.411912
155	N	0.777223	0.377761	0.39664
156	H	0.788417	0.353369	0.411938
157	C	0.397862	0.539605	0.329394
158	C	0.394042	0.510864	0.36829
159	C	0.425214	0.486669	0.374773
160	C	0.462729	0.492194	0.341682
161	C	0.464001	0.518102	0.634345
162	C	0.43279	0.542209	0.629058
163	H	0.435707	0.56177	0.600039
164	C	0.497256	0.470156	0.345557
165	C	0.519046	0.466662	0.386695
166	C	0.553739	0.446519	0.389389
167	C	0.56996	0.430963	0.684039
168	C	0.551177	0.437493	0.642542
169	C	0.515691	0.457061	0.639622
170	H	0.511639	0.480559	0.415371
171	H	0.567631	0.444311	0.420072
172	H	0.563442	0.427667	0.613969
173	H	0.367529	0.506883	0.392465
174	C	0.499156	0.466602	0.595334
175	C	0.497493	0.518822	0.59651
176	H	0.459752	0.433575	0.587617
177	H	0.526066	0.469147	0.568856
178	H	0.482409	0.523511	0.564501
179	H	0.537535	0.552352	0.600815
180	N	0.415921	0.454319	0.412741
181	O	0.423435	0.479665	0.448442
182	O	0.369822	0.415099	0.413044
183	C	0.605984	0.408534	0.684868
184	H	0.641989	0.434984	0.666327
185	H	0.585671	0.370806	0.666986
186	C	0.36476	0.565185	0.325666
187	H	0.375324	0.592593	0.353737
188	H	0.323114	0.534746	0.329329
189	C	0.458919	0.857957	0.329369
190	C	0.487664	0.88288	0.368264
191	C	0.511863	0.938246	0.374743
192	C	0.506339	0.970236	0.341652
193	C	0.480432	0.945602	0.634318
194	C	0.456319	0.890284	0.629035
195	H	0.436753	0.873636	0.600012
196	C	0.528376	0.026803	0.345531
197	C	0.531871	0.052086	0.386668
198	C	0.55201	0.106921	0.389362
199	C	0.567565	0.138698	0.684013
200	C	0.561041	0.113388	0.642515
201	C	0.541472	0.058334	0.639595
202	H	0.517973	0.030781	0.415344
203	H	0.554219	0.12302	0.420046
204	H	0.570867	0.135478	0.613942
205	H	0.491642	0.860348	0.392438
206	C	0.531933	0.032258	0.595308
207	C	0.479711	0.978372	0.59648
208	H	0.564959	0.025881	0.58759
209	H	0.52939	0.056624	0.568826
210	H	0.475023	0.958598	0.564471
211	H	0.446183	0.984886	0.600785
212	N	0.544215	0.961305	0.412711
213	O	0.518874	0.943477	0.448415
214	O	0.583434	0.954423	0.413011
215	C	0.589997	0.197152	0.684845
216	H	0.563546	0.206707	0.6663
217	H	0.627725	0.214568	0.666966
218	C	0.433332	0.799276	0.325645
219	H	0.405926	0.782437	0.353717
220	H	0.463771	0.788065	0.32931
221	C	0.140555	0.600666	0.329363
222	C	0.115632	0.604492	0.368257
223	C	0.060267	0.573325	0.374739
224	C	0.028276	0.535802	0.341648
225	C	0.052913	0.534528	0.634315
226	C	0.108231	0.565735	0.629031
227	H	0.124877	0.562815	0.600012
228	C	0.971716	0.501272	0.345531
229	C	0.946437	0.479487	0.386672
230	C	0.891601	0.444786	0.389369
231	C	0.859823	0.428557	0.684019
232	C	0.88513	0.447334	0.642522
233	C	0.940184	0.482827	0.639599
234	H	0.967743	0.486903	0.415344
235	H	0.875508	0.4309	0.420052
236	H	0.863041	0.435063	0.613949
237	H	0.138167	0.63101	0.392428
238	C	0.966255	0.499356	0.595308
239	C	0.020142	0.50103	0.59648
240	H	0.972629	0.538758	0.587587
241	H	0.94189	0.472443	0.568833
242	H	0.039912	0.516111	0.564471
243	H	0.013634	0.460991	0.600791
244	N	0.037208	0.582621	0.412704
245	O	0.055042	0.575118	0.448409
246	O	0.044088	0.628722	0.412997
247	C	0.80137	0.392525	0.684855
248	H	0.791819	0.356514	0.666324
249	H	0.78395	0.412827	0.666966
250	C	0.199238	0.633764	0.325638
251	H	0.216079	0.623206	0.353714
252	H	0.210446	0.675414	0.329293
253	C	0.351082	0.629664	0.617388
254	C	0.296216	0.611394	0.617259
255	C	0.277397	0.647432	0.617368
256	C	0.313994	0.702299	0.617245
257	C	0.368851	0.721116	0.617372
258	C	0.387121	0.684519	0.617259
259	H	0.300526	0.728639	0.617002
260	H	0.42693	0.69799	0.617022
261	H	0.269875	0.571584	0.617022
262	N	0.371515	0.59486	0.616972
263	H	0.355366	0.569138	0.590663
264	N	0.403654	0.776351	0.616952
265	H	0.429375	0.78592	0.590643
266	N	0.222163	0.627001	0.616949
267	H	0.212593	0.643147	0.590633
268	C	0.644087	0.366697	0.730418
269	C	0.699462	0.38787	0.730624
270	C	0.721438	0.354438	0.730411
271	C	0.687235	0.299064	0.730598
272	C	0.631828	0.277086	0.730401
273	C	0.610656	0.311289	0.730604
274	H	0.702854	0.274515	0.730325
275	H	0.570488	0.295671	0.730338
276	H	0.72401	0.428035	0.730354
277	N	0.620764	0.399163	0.729985
278	H	0.645164	0.434754	0.74527
279	N	0.599363	0.2213	0.729962
280	H	0.563769	0.210106	0.745244
281	N	0.777223	0.377761	0.729975
282	H	0.788417	0.353369	0.74527
283	C	0.397862	0.539605	0.662728
284	C	0.394042	0.510864	0.701622
285	C	0.425214	0.486669	0.708104
286	C	0.462729	0.492194	0.675013
287	C	0.464001	0.518102	0.967677
288	C	0.43279	0.542209	0.962393
289	H	0.435707	0.56177	0.933371
290	C	0.497256	0.470156	0.678892
291	C	0.519046	0.466662	0.72003
292	C	0.553739	0.446519	0.722724
293	C	0.56996	0.430963	0.017374
294	C	0.551177	0.437493	0.975877
295	C	0.515691	0.457061	0.972957
296	H	0.511639	0.480559	0.748706
297	H	0.567631	0.444311	0.753407
298	H	0.563442	0.427667	0.947304
299	H	0.367529	0.506883	0.725797
300	C	0.499156	0.466602	0.928669
301	C	0.497493	0.518822	0.929841
302	H	0.459752	0.433575	0.920952
303	H	0.526066	0.469147	0.902188
304	H	0.482409	0.523511	0.897833
305	H	0.537535	0.552352	0.93415
306	N	0.415921	0.454319	0.746073
307	O	0.423435	0.479665	0.781774
308	O	0.369822	0.415099	0.746375
309	C	0.605984	0.408534	0.018203
310	H	0.641989	0.434984	0.999662
311	H	0.585671	0.370806	0.000322
312	C	0.36476	0.565185	0.658999
313	H	0.375324	0.592593	0.687069
314	H	0.323114	0.534746	0.662661
315	C	0.458919	0.857957	0.662701
316	C	0.487664	0.88288	0.701595
317	C	0.511863	0.938246	0.708078
318	C	0.506339	0.970236	0.674983
319	C	0.480432	0.945602	0.96765
320	C	0.456319	0.890284	0.962366
321	H	0.436753	0.873636	0.933347
322	C	0.528376	0.026803	0.678862
323	C	0.531871	0.052086	0.72
324	C	0.55201	0.106921	0.722694
325	C	0.567565	0.138698	0.017347
326	C	0.561041	0.113388	0.97585
327	C	0.541472	0.058334	0.972927
328	H	0.517973	0.030781	0.748676
329	H	0.554219	0.12302	0.753381
330	H	0.570867	0.135478	0.947274
331	H	0.491642	0.860348	0.725773
332	C	0.531933	0.032258	0.92864
333	C	0.479711	0.978372	0.929811
334	H	0.564959	0.025881	0.920922
335	H	0.52939	0.056624	0.902161
336	H	0.475023	0.958598	0.897803
337	H	0.446183	0.984886	0.934116
338	N	0.544215	0.961305	0.746046
339	O	0.518874	0.943477	0.781747
340	O	0.583434	0.954423	0.746346
341	C	0.589997	0.197152	0.018178
342	H	0.563546	0.206707	0.999634
343	H	0.627725	0.214568	0.0003
344	C	0.433332	0.799276	0.658979
345	H	0.405926	0.782437	0.687049
346	H	0.463771	0.788065	0.662641
347	C	0.140555	0.600666	0.662695
348	C	0.115632	0.604492	0.701589
349	C	0.060267	0.573325	0.708071
350	C	0.028276	0.535802	0.674983
351	C	0.052913	0.534528	0.96765
352	C	0.108231	0.565735	0.962363
353	H	0.124877	0.562815	0.933344
354	C	0.971716	0.501272	0.678862
355	C	0.946437	0.479487	0.720003
356	C	0.891601	0.444786	0.7227
357	C	0.859823	0.428557	0.017355
358	C	0.88513	0.447334	0.975854
359	C	0.940184	0.482827	0.97293
360	H	0.967743	0.486903	0.748679
361	H	0.875508	0.4309	0.753387
362	H	0.863041	0.435063	0.947281
363	H	0.138167	0.63101	0.725763
364	C	0.966255	0.499356	0.928643
365	C	0.020142	0.50103	0.929815
366	H	0.972629	0.538758	0.920922
367	H	0.94189	0.472443	0.902164
368	H	0.039912	0.516111	0.897806
369	H	0.013634	0.460991	0.934123
370	N	0.037208	0.582621	0.746036
371	O	0.055042	0.575118	0.78174
372	O	0.044088	0.628722	0.746332
373	C	0.80137	0.392525	0.018189
374	H	0.791819	0.356514	0.999658
375	H	0.78395	0.412827	0.000299
376	C	0.199238	0.633764	0.658969
377	H	0.216079	0.623206	0.687046
378	H	0.210446	0.675414	0.662625
