data_C360H228N12_2018-02-15_10:35:59
#******************************************
#
# CIF file created by Zeo++
# Zeo++ is an open source package to
# analyze microporous materials
#
#*******************************************

_cell_length_a		25.9242   
_cell_length_b		30.1008   
_cell_length_c		29.7642   
_cell_angle_alpha		91.9007   
_cell_angle_beta		88.8967   
_cell_angle_gamma		90.0364   

_symmetry_space_group_name_H-M		'P1'
_symmetry_Int_Tables_number		1
_symmetry_cell_setting		Triclinic

loop_
_symmetry_equiv_pos_as_xyz
'+x,+y,+z'

loop_
_atom_site_label
_atom_site_type_symbol
_atom_site_fract_x
_atom_site_fract_y
_atom_site_fract_z
1	C	0.997878	0.0044	0.002939
2	C	0.968072	0.465042	0.998259
3	C	0.913776	0.463158	0.004973
4	C	0.887553	0.003978	0.016216
5	C	0.913755	0.045609	0.012236
6	C	0.968497	0.044072	0.008796
7	H	0.986177	0.436438	0.321052
8	N	0.84106	0.00309	0.03889
9	C	0.054505	0.003989	0.002946
10	C	0.083625	0.464695	0.00878
11	C	0.138213	0.463376	0.01223
12	C	0.164216	0.005266	0.016229
13	C	0.138519	0.045369	0.005012
14	C	0.084512	0.043056	0.99832
15	N	0.209705	0.007632	0.038918
16	H	0.066884	0.070964	0.321092
17	H	0.22249	0.482126	0.054465
18	H	0.222939	0.035967	0.050101
19	H	0.827688	0.029648	0.054479
20	H	0.827239	0.475522	0.05004
21	H	0.987572	0.073495	0.009053
22	H	0.064538	0.435288	0.009019
23	C	0.248137	0.212569	0.999224
24	C	0.302965	0.214167	0.997859
25	C	0.331715	0.254194	0.000993
26	C	0.303264	0.294373	0.004123
27	C	0.248559	0.296007	0.004426
28	C	0.222708	0.25442	0.002411
29	C	0.387502	0.254186	0.001517
30	C	0.415684	0.220157	0.022065
31	C	0.470047	0.219784	0.021849
32	C	0.498717	0.254234	0.002116
33	C	0.471229	0.288723	0.982188
34	C	0.416895	0.288307	0.981401
35	C	0.220008	0.171411	0.998131
36	C	0.242131	0.130623	0.981858
37	C	0.215282	0.089978	0.983176
38	C	0.164486	0.087105	0.001251
39	C	0.141181	0.127864	0.015538
40	C	0.168184	0.168433	0.014397
41	C	0.220916	0.337256	0.006552
42	C	0.169732	0.3409	0.024173
43	C	0.142783	0.381576	0.02649
44	C	0.165017	0.421604	0.011257
45	C	0.215516	0.417567	0.992234
46	C	0.242835	0.37712	0.990644
47	H	0.233299	0.062131	0.969895
48	H	0.27793	0.129741	0.966967
49	H	0.105356	0.128147	0.030607
50	H	0.149911	0.195392	0.029072
51	H	0.151992	0.314296	0.038339
52	H	0.107458	0.381787	0.04233
53	H	0.278217	0.376922	0.974865
54	H	0.232812	0.444161	0.977565
55	H	0.399037	0.313192	0.965034
56	H	0.490679	0.313883	0.966893
57	H	0.488592	0.194604	0.037283
58	H	0.396894	0.195315	0.03834
59	H	0.323158	0.185134	0.996097
60	H	0.183763	0.254862	0.998542
61	H	0.323215	0.323296	0.009298
62	C	0.80443	0.295574	0.999207
63	C	0.749661	0.29389	0.997842
64	C	0.720774	0.25407	0.000986
65	C	0.749078	0.214096	0.004123
66	C	0.803771	0.212478	0.004433
67	C	0.829714	0.253931	0.002415
68	C	0.664965	0.254117	0.001507
69	C	0.63588	0.289483	0.022079
70	C	0.581527	0.28985	0.021858
71	C	0.553724	0.254115	0.002112
72	C	0.582089	0.218333	0.982151
73	C	0.636458	0.218692	0.981364
74	C	0.832609	0.336658	0.998088
75	C	0.811216	0.376368	0.981778
76	C	0.837987	0.417109	0.983126
77	C	0.887984	0.421173	0.001198
78	C	0.910696	0.381347	0.015431
79	C	0.883711	0.340715	0.014358
80	C	0.831309	0.171365	0.006572
81	C	0.881712	0.168873	0.024198
82	C	0.908535	0.128337	0.026548
83	C	0.886998	0.087319	0.01126
84	C	0.837348	0.090119	0.992231
85	C	0.810074	0.130454	0.990691
86	H	0.820541	0.444088	0.969862
87	H	0.776049	0.376283	0.966937
88	H	0.945795	0.382057	0.030599
89	H	0.901323	0.314728	0.029066
90	H	0.898835	0.196405	0.038353
91	H	0.943185	0.129171	0.042349
92	H	0.775418	0.129628	0.974861
93	H	0.820695	0.062566	0.977561
94	H	0.655038	0.192741	0.964983
95	H	0.56331	0.192176	0.966849
96	H	0.562299	0.316021	0.03733
97	H	0.653954	0.315379	0.038372
98	H	0.729547	0.322807	0.996077
99	H	0.868832	0.253233	0.998552
100	H	0.728891	0.185515	0.009297
101	C	0.997877	0.0044	0.336272
102	C	0.968075	0.465042	0.331593
103	C	0.913775	0.46316	0.338306
104	C	0.887552	0.00398	0.34955
105	C	0.913754	0.045609	0.345569
106	C	0.968499	0.044072	0.342129
107	H	0.986176	0.436437	0.654385
108	N	0.841062	0.003088	0.372224
109	C	0.054505	0.00399	0.336279
110	C	0.083625	0.464693	0.342112
111	C	0.138214	0.463374	0.345565
112	C	0.164217	0.005266	0.349563
113	C	0.138519	0.045369	0.338347
114	C	0.084512	0.043056	0.331654
115	N	0.209705	0.007632	0.372251
116	H	0.066886	0.070963	0.654425
117	H	0.22249	0.482127	0.387798
118	H	0.222938	0.035967	0.383434
119	H	0.82769	0.029648	0.387812
120	H	0.827238	0.475524	0.383373
121	H	0.987571	0.073495	0.342388
122	H	0.064538	0.43529	0.342351
123	C	0.248137	0.212569	0.332556
124	C	0.302965	0.214167	0.331191
125	C	0.331714	0.254194	0.334327
126	C	0.303264	0.294372	0.337456
127	C	0.248558	0.296007	0.337758
128	C	0.222708	0.25442	0.335745
129	C	0.387501	0.254186	0.334852
130	C	0.415682	0.220157	0.3554
131	C	0.470045	0.219783	0.355181
132	C	0.49872	0.254234	0.335449
133	C	0.471231	0.288723	0.31552
134	C	0.416898	0.288307	0.314733
135	C	0.220007	0.171411	0.331466
136	C	0.242131	0.130623	0.31519
137	C	0.215281	0.089978	0.316511
138	C	0.164487	0.087105	0.334586
139	C	0.141181	0.127864	0.34887
140	C	0.168184	0.168433	0.347731
141	C	0.220916	0.337255	0.339887
142	C	0.169732	0.340899	0.357508
143	C	0.142783	0.381578	0.359824
144	C	0.165017	0.421606	0.34459
145	C	0.215515	0.417567	0.325568
146	C	0.242835	0.37712	0.323976
147	H	0.233299	0.062131	0.303227
148	H	0.27793	0.12974	0.300299
149	H	0.105356	0.128147	0.36394
150	H	0.149911	0.195392	0.362407
151	H	0.151991	0.314296	0.371673
152	H	0.107458	0.381785	0.375664
153	H	0.278217	0.376922	0.308197
154	H	0.232812	0.444158	0.310897
155	H	0.399036	0.313192	0.298366
156	H	0.490678	0.313883	0.300224
157	H	0.488594	0.194604	0.370617
158	H	0.396893	0.195315	0.371673
159	H	0.323158	0.185134	0.32943
160	H	0.183763	0.254862	0.331875
161	H	0.323215	0.323295	0.34263
162	C	0.804429	0.295574	0.332539
163	C	0.749663	0.29389	0.331176
164	C	0.720773	0.25407	0.334317
165	C	0.74908	0.214096	0.337456
166	C	0.80377	0.212477	0.337765
167	C	0.829713	0.253931	0.335747
168	C	0.664964	0.254117	0.334841
169	C	0.635883	0.289483	0.355413
170	C	0.581525	0.28985	0.355191
171	C	0.553723	0.254114	0.335445
172	C	0.582088	0.218333	0.315483
173	C	0.636457	0.218692	0.314698
174	C	0.832608	0.336658	0.331419
175	C	0.811219	0.376368	0.315109
176	C	0.837986	0.417109	0.316459
177	C	0.887983	0.421173	0.334531
178	C	0.910694	0.381345	0.348766
179	C	0.883709	0.340713	0.34769
180	C	0.831311	0.171365	0.339907
181	C	0.881714	0.168873	0.357531
182	C	0.908534	0.128337	0.359882
183	C	0.887001	0.087319	0.344594
184	C	0.837347	0.090119	0.325563
185	C	0.810073	0.130454	0.324023
186	H	0.82054	0.444089	0.303193
187	H	0.776048	0.376283	0.30027
188	H	0.945797	0.382055	0.363933
189	H	0.901321	0.314728	0.3624
190	H	0.898838	0.196405	0.371686
191	H	0.943183	0.12917	0.375684
192	H	0.77542	0.129628	0.308194
193	H	0.820694	0.062566	0.310894
194	H	0.655037	0.192741	0.298317
195	H	0.563309	0.192176	0.300181
196	H	0.562298	0.316021	0.370664
197	H	0.653957	0.315379	0.371707
198	H	0.729546	0.322807	0.32941
199	H	0.868831	0.253233	0.331885
200	H	0.728894	0.185515	0.34263
201	C	0.99788	0.0044	0.669606
202	C	0.968073	0.465041	0.664926
203	C	0.913773	0.463158	0.67164
204	C	0.887554	0.003978	0.68289
205	C	0.913756	0.045609	0.678909
206	C	0.968502	0.044073	0.675466
207	H	0.986174	0.436438	0.987719
208	N	0.841064	0.003087	0.705565
209	C	0.054508	0.003991	0.669612
210	C	0.083625	0.464694	0.675446
211	C	0.138213	0.463376	0.678899
212	C	0.164219	0.005266	0.682897
213	C	0.138521	0.045369	0.67168
214	C	0.084514	0.043056	0.664986
215	N	0.209707	0.007632	0.705585
216	H	0.066884	0.070964	0.987759
217	H	0.22249	0.482125	0.721132
218	H	0.222941	0.035967	0.716768
219	H	0.827697	0.029648	0.721155
220	H	0.82724	0.475522	0.716707
221	H	0.987573	0.073494	0.675722
222	H	0.064538	0.435288	0.675685
223	C	0.248138	0.21257	0.66589
224	C	0.302966	0.214167	0.664525
225	C	0.331715	0.254195	0.667659
226	C	0.303265	0.294373	0.670789
227	C	0.248559	0.296008	0.671092
228	C	0.222709	0.254421	0.669078
229	C	0.3875	0.254187	0.668184
230	C	0.415685	0.220157	0.688733
231	C	0.470048	0.219784	0.688515
232	C	0.498719	0.254233	0.668782
233	C	0.47123	0.288723	0.648854
234	C	0.416896	0.288307	0.648067
235	C	0.220009	0.171411	0.664798
236	C	0.242133	0.130623	0.648521
237	C	0.215283	0.089978	0.649843
238	C	0.164488	0.087105	0.667918
239	C	0.141183	0.127864	0.682204
240	C	0.168186	0.168434	0.681064
241	C	0.220916	0.337255	0.67322
242	C	0.169732	0.340899	0.690842
243	C	0.142783	0.38158	0.693158
244	C	0.165017	0.421604	0.677924
245	C	0.215515	0.417568	0.6589
246	C	0.242835	0.377122	0.65731
247	H	0.233301	0.062131	0.636559
248	H	0.277931	0.129741	0.63363
249	H	0.105358	0.128147	0.697273
250	H	0.149913	0.195392	0.69574
251	H	0.151992	0.314296	0.705007
252	H	0.107458	0.381787	0.708997
253	H	0.278217	0.37692	0.641531
254	H	0.232811	0.44416	0.644231
255	H	0.399039	0.313193	0.6317
256	H	0.490677	0.313883	0.633556
257	H	0.488593	0.194605	0.703951
258	H	0.396895	0.195315	0.705007
259	H	0.323159	0.185135	0.662764
260	H	0.183763	0.254862	0.665208
261	H	0.323215	0.323296	0.675964
262	C	0.804431	0.295573	0.66587
263	C	0.749662	0.293889	0.664509
264	C	0.720772	0.254069	0.667652
265	C	0.749079	0.214096	0.670789
266	C	0.803772	0.212477	0.671102
267	C	0.829715	0.253931	0.669081
268	C	0.664967	0.254116	0.668173
269	C	0.635881	0.289482	0.688747
270	C	0.581528	0.289849	0.688525
271	C	0.553725	0.254114	0.668779
272	C	0.582091	0.218332	0.648817
273	C	0.636455	0.218691	0.64803
274	C	0.832611	0.336657	0.664751
275	C	0.811218	0.376366	0.648444
276	C	0.837985	0.41711	0.649792
277	C	0.887981	0.421171	0.667864
278	C	0.910697	0.381346	0.682096
279	C	0.883712	0.340713	0.681024
280	C	0.83131	0.171364	0.67324
281	C	0.881716	0.168873	0.690865
282	C	0.908536	0.128337	0.693215
283	C	0.887003	0.087319	0.677931
284	C	0.837349	0.090118	0.658904
285	C	0.810072	0.130453	0.657361
286	H	0.820538	0.444087	0.636528
287	H	0.776046	0.376282	0.633603
288	H	0.945796	0.382056	0.697267
289	H	0.90132	0.314728	0.695734
290	H	0.89884	0.196406	0.70502
291	H	0.943186	0.129172	0.709018
292	H	0.775419	0.129626	0.641531
293	H	0.820696	0.062564	0.644234
294	H	0.65504	0.19274	0.631653
295	H	0.563312	0.192175	0.633516
296	H	0.5623	0.316021	0.703998
297	H	0.653955	0.315378	0.70504
298	H	0.729548	0.322806	0.662743
299	H	0.868833	0.253233	0.665218
300	H	0.728892	0.185515	0.675967
301	C	0.997881	0.5044	0.002939
302	C	0.968074	0.965039	0.998259
303	C	0.913775	0.963159	0.004973
304	C	0.887551	0.503977	0.016216
305	C	0.913753	0.54561	0.012236
306	C	0.968499	0.544072	0.008796
307	H	0.986176	0.936436	0.321052
308	N	0.841061	0.50309	0.03889
309	C	0.054505	0.503992	0.002946
310	C	0.083625	0.964692	0.00878
311	C	0.138213	0.963373	0.01223
312	C	0.164217	0.505267	0.016229
313	C	0.138519	0.54537	0.005012
314	C	0.084512	0.543055	0.99832
315	N	0.209705	0.507632	0.038918
316	H	0.066884	0.570961	0.321092
317	H	0.22249	0.982126	0.054465
318	H	0.222938	0.535968	0.050101
319	H	0.82769	0.529647	0.054479
320	H	0.827238	0.975523	0.05004
321	H	0.987571	0.573495	0.009053
322	H	0.064538	0.935289	0.009019
323	C	0.248137	0.712569	0.999224
324	C	0.302965	0.714165	0.997859
325	C	0.331714	0.754194	0.000993
326	C	0.303264	0.794371	0.004123
327	C	0.248558	0.796005	0.004426
328	C	0.222708	0.75442	0.002411
329	C	0.387501	0.754185	0.001517
330	C	0.415682	0.720157	0.022065
331	C	0.470049	0.719781	0.021849
332	C	0.49872	0.754234	0.002116
333	C	0.471231	0.788723	0.982188
334	C	0.416897	0.788305	0.981401
335	C	0.220008	0.671411	0.998131
336	C	0.242131	0.630623	0.981858
337	C	0.215282	0.589976	0.983176
338	C	0.164487	0.587104	0.001251
339	C	0.141181	0.627862	0.015538
340	C	0.168184	0.668432	0.014397
341	C	0.220916	0.837253	0.006552
342	C	0.169732	0.840898	0.024173
343	C	0.142783	0.881577	0.02649
344	C	0.165017	0.921605	0.011257
345	C	0.215516	0.917567	0.992234
346	C	0.242835	0.877121	0.990644
347	H	0.233299	0.56213	0.969895
348	H	0.27793	0.62974	0.966967
349	H	0.105356	0.628147	0.030607
350	H	0.149911	0.695391	0.029072
351	H	0.151992	0.814296	0.038339
352	H	0.107458	0.881784	0.04233
353	H	0.278217	0.876919	0.974865
354	H	0.232812	0.944159	0.977565
355	H	0.399036	0.81319	0.965034
356	H	0.490678	0.813882	0.966893
357	H	0.488594	0.694603	0.037283
358	H	0.396893	0.695313	0.03834
359	H	0.323158	0.685135	0.996097
360	H	0.183763	0.754861	0.998542
361	H	0.323215	0.823294	0.009298
362	C	0.804428	0.795573	0.999207
363	C	0.749663	0.79389	0.997842
364	C	0.720772	0.754071	0.000986
365	C	0.74908	0.714094	0.004123
366	C	0.80377	0.712476	0.004433
367	C	0.829712	0.753932	0.002415
368	C	0.664964	0.754115	0.001507
369	C	0.635883	0.789481	0.022079
370	C	0.581525	0.78985	0.021858
371	C	0.553722	0.754115	0.002112
372	C	0.582088	0.718331	0.982151
373	C	0.636456	0.718691	0.981364
374	C	0.832612	0.836658	0.998088
375	C	0.811219	0.876368	0.981778
376	C	0.837986	0.917109	0.983126
377	C	0.887982	0.92117	0.001198
378	C	0.910694	0.881344	0.015431
379	C	0.883709	0.840712	0.014358
380	C	0.831311	0.671365	0.006572
381	C	0.881714	0.668873	0.024198
382	C	0.908534	0.628336	0.026548
383	C	0.887001	0.587318	0.01126
384	C	0.837346	0.590117	0.992231
385	C	0.810073	0.630454	0.990691
386	H	0.820539	0.944089	0.969862
387	H	0.776047	0.876284	0.966937
388	H	0.945797	0.882054	0.030599
389	H	0.901321	0.814726	0.029066
390	H	0.898837	0.696406	0.038353
391	H	0.943183	0.62917	0.042349
392	H	0.77542	0.629626	0.974861
393	H	0.820693	0.562564	0.977561
394	H	0.655037	0.692739	0.964983
395	H	0.563309	0.692176	0.966849
396	H	0.562298	0.816021	0.03733
397	H	0.653957	0.815377	0.038372
398	H	0.729545	0.822805	0.996077
399	H	0.86883	0.753234	0.998552
400	H	0.728894	0.685513	0.009297
401	C	0.99788	0.504401	0.336272
402	C	0.968073	0.96504	0.331593
403	C	0.913773	0.96316	0.338306
404	C	0.887553	0.503979	0.34955
405	C	0.913756	0.545608	0.345569
406	C	0.968498	0.54407	0.342129
407	H	0.986178	0.936437	0.654385
408	N	0.84106	0.503091	0.372224
409	C	0.054506	0.503992	0.336279
410	C	0.083625	0.964694	0.342112
411	C	0.138214	0.963375	0.345565
412	C	0.164217	0.505265	0.349563
413	C	0.138519	0.545368	0.338347
414	C	0.084512	0.543056	0.331654
415	N	0.209705	0.50763	0.372251
416	H	0.066884	0.570963	0.654425
417	H	0.22249	0.982125	0.387798
418	H	0.222938	0.535966	0.383434
419	H	0.827689	0.529648	0.387812
420	H	0.82724	0.975521	0.383373
421	H	0.987573	0.573493	0.342388
422	H	0.064538	0.935287	0.342351
423	C	0.248138	0.712569	0.332556
424	C	0.302965	0.714166	0.331191
425	C	0.331714	0.754194	0.334327
426	C	0.303264	0.794372	0.337456
427	C	0.248559	0.796007	0.337758
428	C	0.222708	0.75442	0.335745
429	C	0.3875	0.754185	0.334852
430	C	0.415681	0.720155	0.3554
431	C	0.470048	0.719783	0.355181
432	C	0.498718	0.754231	0.335449
433	C	0.47123	0.788723	0.31552
434	C	0.416896	0.788305	0.314733
435	C	0.220007	0.671408	0.331466
436	C	0.242131	0.630623	0.31519
437	C	0.215281	0.589977	0.316511
438	C	0.164487	0.587104	0.334586
439	C	0.141181	0.627864	0.34887
440	C	0.168184	0.668433	0.347731
441	C	0.220916	0.837255	0.339887
442	C	0.169732	0.840899	0.357508
443	C	0.142783	0.881579	0.359824
444	C	0.165018	0.921603	0.34459
445	C	0.215515	0.917568	0.325568
446	C	0.242835	0.877121	0.323976
447	H	0.233299	0.56213	0.303227
448	H	0.27793	0.62974	0.300299
449	H	0.105356	0.628145	0.36394
450	H	0.149911	0.695392	0.362407
451	H	0.151991	0.814294	0.371673
452	H	0.107458	0.881786	0.375664
453	H	0.278217	0.876919	0.308197
454	H	0.232812	0.944159	0.310897
455	H	0.399039	0.81319	0.298366
456	H	0.490677	0.813882	0.300224
457	H	0.488593	0.694605	0.370617
458	H	0.396895	0.695314	0.371673
459	H	0.323158	0.685132	0.32943
460	H	0.183762	0.754862	0.331875
461	H	0.323215	0.823296	0.34263
462	C	0.804427	0.795573	0.332539
463	C	0.749662	0.793891	0.331176
464	C	0.720771	0.754068	0.334317
465	C	0.749079	0.714095	0.337456
466	C	0.803768	0.712478	0.337765
467	C	0.829715	0.753929	0.335747
468	C	0.664967	0.754115	0.334841
469	C	0.635881	0.789483	0.355413
470	C	0.581524	0.789848	0.355191
471	C	0.553721	0.754115	0.335445
472	C	0.582087	0.718332	0.315483
473	C	0.636455	0.718691	0.314698
474	C	0.832611	0.836659	0.331419
475	C	0.811218	0.876369	0.315109
476	C	0.837985	0.91711	0.316459
477	C	0.887985	0.92117	0.334531
478	C	0.910697	0.881346	0.348766
479	C	0.883712	0.840713	0.34769
480	C	0.83131	0.671363	0.339907
481	C	0.881713	0.668871	0.357531
482	C	0.908536	0.628334	0.359882
483	C	0.886999	0.587319	0.344594
484	C	0.837345	0.590117	0.325563
485	C	0.810072	0.630454	0.324023
486	H	0.820538	0.944089	0.303193
487	H	0.776046	0.876284	0.30027
488	H	0.945796	0.882056	0.363933
489	H	0.90132	0.814728	0.3624
490	H	0.898836	0.696404	0.371686
491	H	0.943186	0.629168	0.375684
492	H	0.775419	0.629627	0.308194
493	H	0.820692	0.562564	0.310894
494	H	0.655036	0.69274	0.298317
495	H	0.563312	0.692176	0.300181
496	H	0.5623	0.816019	0.370664
497	H	0.653955	0.815379	0.371707
498	H	0.729544	0.822806	0.32941
499	H	0.868829	0.753234	0.331885
500	H	0.728892	0.685515	0.34263
501	C	0.997878	0.504399	0.669606
502	C	0.968076	0.965041	0.664929
503	C	0.913776	0.963158	0.671643
504	C	0.887552	0.503977	0.682883
505	C	0.913755	0.54561	0.678902
506	C	0.968496	0.544072	0.675463
507	H	0.986177	0.936435	0.987719
508	N	0.841062	0.503089	0.705558
509	C	0.054505	0.503991	0.669612
510	C	0.083627	0.964695	0.675446
511	C	0.138216	0.963373	0.678899
512	C	0.164216	0.505267	0.682897
513	C	0.138519	0.54537	0.67168
514	C	0.084512	0.543054	0.664986
515	N	0.209704	0.507632	0.705585
516	H	0.066884	0.570964	0.987759
517	H	0.222492	0.982126	0.721132
518	H	0.222938	0.535968	0.716768
519	H	0.827691	0.529646	0.721145
520	H	0.827247	0.975523	0.716714
521	H	0.987572	0.573495	0.675722
522	H	0.06454	0.935288	0.675688
523	C	0.248138	0.712568	0.66589
524	C	0.302966	0.714164	0.664525
525	C	0.331715	0.754193	0.667659
526	C	0.303265	0.794371	0.670789
527	C	0.248559	0.796005	0.671092
528	C	0.222709	0.754419	0.669078
529	C	0.387502	0.754187	0.668184
530	C	0.415683	0.720157	0.688733
531	C	0.470046	0.719781	0.688515
532	C	0.498721	0.754233	0.668782
533	C	0.471228	0.788721	0.648854
534	C	0.416899	0.788307	0.648067
535	C	0.220008	0.67141	0.664798
536	C	0.242131	0.630622	0.648525
537	C	0.215282	0.589978	0.649843
538	C	0.164486	0.587106	0.667918
539	C	0.141181	0.627862	0.682204
540	C	0.168185	0.668432	0.681064
541	C	0.220917	0.837253	0.67322
542	C	0.169733	0.840897	0.690842
543	C	0.142784	0.881577	0.693158
544	C	0.165019	0.921605	0.677924
545	C	0.215517	0.917566	0.6589
546	C	0.242837	0.877119	0.65731
547	H	0.233299	0.562128	0.636562
548	H	0.27793	0.629738	0.633633
549	H	0.105356	0.628147	0.697273
550	H	0.149911	0.69539	0.69574
551	H	0.151993	0.814296	0.705007
552	H	0.107459	0.881784	0.708997
553	H	0.278218	0.876921	0.641531
554	H	0.232813	0.944157	0.644231
555	H	0.399037	0.813192	0.6317
556	H	0.490679	0.813884	0.633556
557	H	0.488595	0.694603	0.703951
558	H	0.396894	0.695312	0.705007
559	H	0.323159	0.685134	0.662764
560	H	0.183763	0.75486	0.665208
561	H	0.323216	0.823294	0.675964
562	C	0.80443	0.795575	0.665874
563	C	0.749664	0.793889	0.664509
564	C	0.720774	0.754069	0.667652
565	C	0.749081	0.714097	0.670789
566	C	0.803771	0.712476	0.671099
567	C	0.829714	0.75393	0.669081
568	C	0.664965	0.754116	0.668173
569	C	0.63588	0.789481	0.688747
570	C	0.581526	0.789849	0.688525
571	C	0.553724	0.754113	0.668779
572	C	0.582089	0.718333	0.648817
573	C	0.636458	0.718693	0.64803
574	C	0.832613	0.836657	0.664754
575	C	0.81122	0.876367	0.648447
576	C	0.837987	0.917111	0.649796
577	C	0.887983	0.921172	0.667867
578	C	0.910699	0.881344	0.6821
579	C	0.883714	0.840712	0.681024
580	C	0.831308	0.671364	0.673237
581	C	0.881715	0.668873	0.690865
582	C	0.908535	0.628336	0.693215
583	C	0.886998	0.587318	0.677927
584	C	0.837348	0.590119	0.658897
585	C	0.810074	0.630453	0.657357
586	H	0.82054	0.944091	0.636535
587	H	0.776048	0.876286	0.63361
588	H	0.945798	0.882054	0.697267
589	H	0.901322	0.814726	0.695734
590	H	0.898835	0.696406	0.70502
591	H	0.943184	0.62917	0.709018
592	H	0.775418	0.629628	0.641528
593	H	0.820695	0.562565	0.644228
594	H	0.655038	0.692741	0.63165
595	H	0.56331	0.692174	0.633516
596	H	0.562299	0.81602	0.703998
597	H	0.653954	0.81538	0.70504
598	H	0.729547	0.822807	0.662743
599	H	0.868832	0.753232	0.665218
600	H	0.728895	0.685516	0.675964
