data_C324H192N48_2018-02-15_10:35:59
#******************************************
#
# CIF file created by Zeo++
# Zeo++ is an open source package to
# analyze microporous materials
#
#*******************************************

_cell_length_a		25.5422   
_cell_length_b		29.6611   
_cell_length_c		29.9898   
_cell_angle_alpha		91.9435   
_cell_angle_beta		88.8717   
_cell_angle_gamma		90.0383   

_symmetry_space_group_name_H-M		'P1'
_symmetry_Int_Tables_number		1
_symmetry_cell_setting		Triclinic

loop_
_symmetry_equiv_pos_as_xyz
'+x,+y,+z'

loop_
_atom_site_label
_atom_site_type_symbol
_atom_site_fract_x
_atom_site_fract_y
_atom_site_fract_z
1	C	0.992092	0.000715	0.999226
2	C	0.961651	0.461112	0.993893
3	C	0.907373	0.458925	0.004522
4	C	0.882355	3.4e-05	0.019532
5	C	0.907959	0.042495	0.013967
6	C	0.963157	0.040973	0.007513
7	H	0.979566	0.432836	0.314131
8	N	0.838923	0.998581	0.046974
9	C	0.049149	0.99985	0.999232
10	C	0.077697	0.460158	0.007533
11	C	0.132596	0.459078	0.013992
12	C	0.157916	0.001924	0.019551
13	C	0.133616	0.042017	0.004547
14	C	0.079827	0.039097	0.99392
15	N	0.200076	0.00527	0.047006
16	H	0.062529	0.066462	0.314127
17	H	0.210656	0.479785	0.06425
18	H	0.211293	0.034417	0.059028
19	H	0.82766	0.025287	0.064233
20	H	0.827042	0.470299	0.058987
21	H	0.983074	0.070504	0.007786
22	H	0.057765	0.430647	0.007814
23	C	0.24434	0.290785	0.001326
24	N	0.297192	0.28964	0.995158
25	C	0.324738	0.250584	0.989869
26	N	0.297097	0.2114	0.990242
27	C	0.244166	0.210125	0.996182
28	N	0.219099	0.250421	0.002134
29	C	0.380425	0.250767	0.986351
30	C	0.409627	0.289511	0.999202
31	C	0.464696	0.289093	0.998034
32	C	0.492963	0.250091	0.983502
33	C	0.46374	0.211567	0.970023
34	C	0.408646	0.211806	0.971635
35	C	0.216957	0.332159	0.006201
36	C	0.241872	0.373681	0.997721
37	C	0.213936	0.414546	0.000372
38	C	0.160317	0.416969	0.013907
39	C	0.136142	0.374982	0.023087
40	C	0.163351	0.333765	0.018868
41	C	0.216481	0.168773	0.996613
42	C	0.162	0.167435	0.006078
43	C	0.134809	0.126269	0.008
44	C	0.160506	0.084118	0.000836
45	C	0.214616	0.085919	0.989358
46	C	0.24205	0.126998	0.987756
47	H	0.233385	0.442637	0.990176
48	H	0.280131	0.374553	0.986985
49	H	0.098362	0.373472	0.034607
50	H	0.143526	0.304883	0.026274
51	H	0.141431	0.196491	0.013113
52	H	0.096304	0.127723	0.017896
53	H	0.281151	0.125831	0.979701
54	H	0.234931	0.056957	0.981333
55	H	0.389387	0.183029	0.961711
56	H	0.482341	0.18278	0.958581
57	H	0.483937	0.317407	0.009262
58	H	0.391193	0.318246	0.011015
59	C	0.796806	0.20993	0.001298
60	N	0.744235	0.210655	0.995135
61	C	0.716935	0.24935	0.989852
62	N	0.744561	0.288558	0.990239
63	C	0.797216	0.290239	0.996176
64	N	0.822008	0.250348	0.002115
65	C	0.661409	0.248936	0.986371
66	C	0.631609	0.211088	0.999252
67	C	0.576594	0.211423	0.998071
68	C	0.549003	0.249419	0.983512
69	C	0.578847	0.28702	0.97004
70	C	0.633872	0.286889	0.971652
71	C	0.823962	0.168886	0.006158
72	C	0.799452	0.126786	0.997631
73	C	0.827247	0.086095	0.000319
74	C	0.880253	0.084604	0.013822
75	C	0.903998	0.127214	0.023034
76	C	0.876976	0.168144	0.018842
77	C	0.824883	0.331622	0.996599
78	C	0.878935	0.333607	0.006045
79	C	0.906014	0.374914	0.008004
80	C	0.880655	0.416571	0.000818
81	C	0.827081	0.413975	0.989325
82	C	0.799723	0.372785	0.987733
83	H	0.808255	0.057302	0.990142
84	H	0.761658	0.125185	0.986975
85	H	0.94124	0.129517	0.034564
86	H	0.896466	0.197533	0.026242
87	H	0.899162	0.305044	0.013144
88	H	0.944062	0.374127	0.017909
89	H	0.760994	0.3734	0.979684
90	H	0.807133	0.442384	0.981296
91	H	0.653589	0.314975	0.961704
92	H	0.56078	0.315015	0.958574
93	H	0.55683	0.18386	0.009252
94	H	0.649503	0.183134	0.011
95	C	0.992092	0.000715	0.332556
96	C	0.961651	0.461113	0.327224
97	C	0.907372	0.458925	0.337855
98	C	0.882353	3.7e-05	0.352865
99	C	0.907957	0.042495	0.347302
100	C	0.963156	0.040973	0.340848
101	H	0.979564	0.432836	0.647465
102	N	0.838921	0.998581	0.380309
103	C	0.049149	0.99985	0.332564
104	C	0.077697	0.460161	0.340865
105	C	0.132596	0.459077	0.347326
106	C	0.157915	0.001924	0.352885
107	C	0.133616	0.042017	0.337882
108	C	0.079827	0.039097	0.327252
109	N	0.200076	0.00527	0.380339
110	H	0.062529	0.066462	0.647462
111	H	0.210656	0.479785	0.397585
112	H	0.211293	0.034417	0.392362
113	H	0.827658	0.025287	0.397568
114	H	0.82704	0.470299	0.392322
115	H	0.983073	0.070505	0.341119
116	H	0.057765	0.430647	0.341149
117	C	0.24434	0.290785	0.334661
118	N	0.297192	0.28964	0.328492
119	C	0.324738	0.250584	0.323201
120	N	0.297097	0.2114	0.323575
121	C	0.244167	0.210125	0.329514
122	N	0.2191	0.250422	0.335469
123	C	0.380424	0.250767	0.319684
124	C	0.409626	0.289511	0.332536
125	C	0.464695	0.289093	0.331366
126	C	0.492963	0.250092	0.316835
127	C	0.463744	0.211567	0.303357
128	C	0.408645	0.211807	0.304969
129	C	0.216958	0.332159	0.339534
130	C	0.241872	0.373678	0.331052
131	C	0.213936	0.414546	0.333707
132	C	0.160317	0.416969	0.347242
133	C	0.136142	0.374982	0.356422
134	C	0.163351	0.333765	0.352201
135	C	0.216481	0.168772	0.329944
136	C	0.162	0.167435	0.33941
137	C	0.134809	0.126269	0.341332
138	C	0.160506	0.084119	0.334171
139	C	0.214615	0.085918	0.32269
140	C	0.24205	0.126998	0.321087
141	H	0.233385	0.442638	0.323507
142	H	0.28013	0.374554	0.320317
143	H	0.098362	0.373472	0.367942
144	H	0.143526	0.304883	0.359609
145	H	0.141431	0.196491	0.346448
146	H	0.096304	0.127723	0.35123
147	H	0.281151	0.125831	0.313032
148	H	0.234931	0.056957	0.314664
149	H	0.389386	0.183029	0.295044
150	H	0.482344	0.18278	0.291912
151	H	0.483939	0.317407	0.342597
152	H	0.391194	0.318246	0.344349
153	C	0.796804	0.20993	0.334631
154	N	0.744235	0.210655	0.328468
155	C	0.716934	0.24935	0.323183
156	N	0.744561	0.288558	0.323572
157	C	0.797216	0.290239	0.329507
158	N	0.82201	0.250348	0.335449
159	C	0.661408	0.248936	0.319703
160	C	0.631608	0.211088	0.332585
161	C	0.576594	0.211423	0.331405
162	C	0.549002	0.249419	0.316845
163	C	0.578847	0.28702	0.303372
164	C	0.633871	0.286888	0.304984
165	C	0.82396	0.168886	0.33949
166	C	0.799456	0.126786	0.330963
167	C	0.827245	0.086095	0.333653
168	C	0.880251	0.084604	0.347155
169	C	0.903996	0.127214	0.356369
170	C	0.876978	0.168144	0.352174
171	C	0.824883	0.331621	0.329932
172	C	0.878933	0.333607	0.33938
173	C	0.906016	0.374914	0.341339
174	C	0.880657	0.416571	0.334151
175	C	0.82708	0.413975	0.322657
176	C	0.799723	0.372786	0.321067
177	H	0.808254	0.057302	0.323476
178	H	0.761658	0.125185	0.320309
179	H	0.941242	0.129517	0.367898
180	H	0.896464	0.197533	0.359576
181	H	0.89916	0.305044	0.346478
182	H	0.94406	0.37413	0.351243
183	H	0.760993	0.3734	0.313016
184	H	0.807133	0.442384	0.314628
185	H	0.653589	0.314975	0.295035
186	H	0.56078	0.315014	0.291906
187	H	0.556833	0.18386	0.342584
188	H	0.649501	0.183134	0.344332
189	C	0.99209	0.000715	0.665889
190	C	0.961653	0.461112	0.660557
191	C	0.907374	0.458928	0.671188
192	C	0.882355	3.7e-05	0.686198
193	C	0.90796	0.042495	0.680635
194	C	0.963158	0.040973	0.674182
195	H	0.979566	0.432836	0.980799
196	N	0.838923	0.99858	0.713642
197	C	0.049149	0.99985	0.665899
198	C	0.077697	0.460161	0.674202
199	C	0.132596	0.459077	0.680659
200	C	0.157915	0.001924	0.686218
201	C	0.133617	0.042017	0.671215
202	C	0.079827	0.039097	0.660587
203	N	0.200076	0.00527	0.713672
204	H	0.062529	0.066462	0.980795
205	H	0.210656	0.479784	0.730918
206	H	0.211293	0.034417	0.725695
207	H	0.82766	0.025287	0.730901
208	H	0.827042	0.470299	0.725655
209	H	0.983075	0.070505	0.674455
210	H	0.057765	0.430647	0.674482
211	C	0.24434	0.290785	0.667995
212	N	0.297192	0.28964	0.661825
213	C	0.324738	0.250584	0.656535
214	N	0.297097	0.2114	0.656909
215	C	0.244167	0.210125	0.662846
216	N	0.2191	0.250422	0.668802
217	C	0.380423	0.250767	0.653018
218	C	0.409628	0.289511	0.665869
219	C	0.464693	0.289093	0.664701
220	C	0.492961	0.250092	0.650168
221	C	0.463742	0.211567	0.63669
222	C	0.408643	0.211806	0.638302
223	C	0.216958	0.33216	0.67287
224	C	0.241872	0.373681	0.664387
225	C	0.213936	0.414546	0.66704
226	C	0.160317	0.416969	0.680575
227	C	0.136142	0.374982	0.689756
228	C	0.163351	0.333765	0.685534
229	C	0.216481	0.168773	0.663276
230	C	0.162	0.167435	0.672743
231	C	0.134809	0.12627	0.674669
232	C	0.160506	0.084119	0.667504
233	C	0.214616	0.085919	0.656025
234	C	0.24205	0.126998	0.65442
235	H	0.233385	0.442638	0.656842
236	H	0.28013	0.374554	0.653652
237	H	0.098362	0.373472	0.701275
238	H	0.143526	0.304883	0.692942
239	H	0.141431	0.196491	0.679781
240	H	0.096304	0.127723	0.684563
241	H	0.281151	0.125831	0.646367
242	H	0.234931	0.056957	0.647999
243	H	0.389389	0.183029	0.628377
244	H	0.482342	0.18278	0.625244
245	H	0.483937	0.317407	0.67593
246	H	0.391192	0.318246	0.677682
247	C	0.796806	0.20993	0.667965
248	N	0.744237	0.210655	0.661801
249	C	0.716936	0.24935	0.656519
250	N	0.744563	0.288558	0.656906
251	C	0.797218	0.290239	0.662842
252	N	0.822009	0.250348	0.668782
253	C	0.661407	0.248936	0.653035
254	C	0.631607	0.211088	0.665919
255	C	0.576596	0.211423	0.664738
256	C	0.549004	0.249419	0.650178
257	C	0.578849	0.287019	0.636707
258	C	0.63387	0.286889	0.638318
259	C	0.823962	0.168886	0.672823
260	C	0.799454	0.126786	0.664297
261	C	0.827247	0.086095	0.666987
262	C	0.880253	0.084605	0.680489
263	C	0.903999	0.127214	0.689702
264	C	0.876976	0.168144	0.685508
265	C	0.824885	0.331621	0.663266
266	C	0.878931	0.333607	0.672713
267	C	0.906014	0.374913	0.674672
268	C	0.880655	0.41657	0.667484
269	C	0.827082	0.413975	0.655991
270	C	0.799721	0.372786	0.6544
271	H	0.808257	0.057302	0.656809
272	H	0.761656	0.125185	0.653642
273	H	0.94124	0.129518	0.701232
274	H	0.896462	0.197533	0.692909
275	H	0.899162	0.305044	0.679811
276	H	0.944062	0.37413	0.684577
277	H	0.760991	0.3734	0.646351
278	H	0.807135	0.442384	0.647963
279	H	0.653591	0.314975	0.628371
280	H	0.560778	0.315014	0.625241
281	H	0.556831	0.18386	0.67592
282	H	0.649499	0.183134	0.677665
283	C	0.992089	0.500717	0.999226
284	C	0.961652	0.961111	0.993893
285	C	0.907374	0.958928	0.004522
286	C	0.882354	0.500035	0.019532
287	C	0.90796	0.542496	0.013967
288	C	0.963158	0.540973	0.007513
289	H	0.979566	0.932839	0.314131
290	N	0.838923	0.498578	0.046974
291	C	0.049149	0.499851	0.999232
292	C	0.077697	0.96016	0.007533
293	C	0.132596	0.95908	0.013992
294	C	0.157915	0.501923	0.019551
295	C	0.133616	0.542018	0.004547
296	C	0.079827	0.539098	0.99392
297	N	0.200076	0.505272	0.047006
298	H	0.062529	0.566462	0.314127
299	H	0.210656	0.979787	0.06425
300	H	0.211293	0.534418	0.059028
301	H	0.827657	0.525288	0.064233
302	H	0.827043	0.970298	0.058987
303	H	0.983075	0.570506	0.007786
304	H	0.057765	0.93065	0.007814
305	C	0.24434	0.790786	0.001326
306	N	0.297192	0.78964	0.995158
307	C	0.324738	0.750583	0.989869
308	N	0.297097	0.7114	0.990242
309	C	0.244167	0.710127	0.996182
310	N	0.2191	0.750421	0.002134
311	C	0.380425	0.750769	0.986351
312	C	0.409627	0.789512	0.999202
313	C	0.464696	0.789095	0.998034
314	C	0.492963	0.750092	0.983502
315	C	0.463741	0.71157	0.970023
316	C	0.408646	0.711807	0.971635
317	C	0.216958	0.832159	0.006201
318	C	0.241872	0.87368	0.997721
319	C	0.213936	0.914549	0.000372
320	C	0.160317	0.916968	0.013907
321	C	0.136142	0.874985	0.023087
322	C	0.163351	0.833766	0.018868
323	C	0.216481	0.668774	0.996613
324	C	0.162	0.667437	0.006078
325	C	0.134809	0.62627	0.008
326	C	0.160506	0.584118	0.000836
327	C	0.214615	0.585919	0.989358
328	C	0.24205	0.626998	0.987756
329	H	0.233385	0.94264	0.990176
330	H	0.28013	0.874553	0.986985
331	H	0.098362	0.873472	0.034607
332	H	0.143526	0.804884	0.026274
333	H	0.141431	0.69649	0.013113
334	H	0.096304	0.627725	0.017896
335	H	0.281151	0.625832	0.979701
336	H	0.234931	0.556959	0.981333
337	H	0.389387	0.683029	0.961711
338	H	0.482341	0.68278	0.958581
339	H	0.483938	0.817409	0.009262
340	H	0.391193	0.818248	0.011015
341	C	0.796807	0.709932	0.001298
342	N	0.744236	0.710657	0.995135
343	C	0.716935	0.749352	0.989852
344	N	0.744562	0.788558	0.990239
345	C	0.797217	0.790241	0.996176
346	N	0.822009	0.750349	0.002115
347	C	0.661409	0.748936	0.986371
348	C	0.631609	0.711088	0.999252
349	C	0.576595	0.711425	0.998071
350	C	0.549003	0.749421	0.983512
351	C	0.578848	0.787019	0.97004
352	C	0.633872	0.786889	0.971652
353	C	0.823962	0.668886	0.006158
354	C	0.799452	0.626787	0.997631
355	C	0.827247	0.586096	0.000319
356	C	0.880254	0.584607	0.013822
357	C	0.903999	0.627214	0.023034
358	C	0.876976	0.668144	0.018842
359	C	0.824884	0.831623	0.996599
360	C	0.878931	0.833607	0.006045
361	C	0.906015	0.874916	0.008004
362	C	0.880655	0.91657	0.000818
363	C	0.827081	0.913977	0.989325
364	C	0.799723	0.872788	0.987733
365	H	0.808255	0.557302	0.990142
366	H	0.761659	0.625185	0.986975
367	H	0.941241	0.629517	0.034564
368	H	0.896462	0.697534	0.026242
369	H	0.899162	0.805044	0.013144
370	H	0.944063	0.87413	0.017909
371	H	0.76099	0.873399	0.979684
372	H	0.807134	0.942386	0.981296
373	H	0.65359	0.814976	0.961704
374	H	0.560781	0.815014	0.958574
375	H	0.556831	0.68386	0.009252
376	H	0.649499	0.683134	0.011
377	C	0.992092	0.500714	0.332556
378	C	0.961652	0.961112	0.327224
379	C	0.907372	0.958927	0.337855
380	C	0.882356	0.500035	0.352865
381	C	0.907958	0.542496	0.347302
382	C	0.963156	0.540973	0.340848
383	H	0.979564	0.932838	0.647465
384	N	0.838921	0.498578	0.380309
385	C	0.049149	0.499851	0.332564
386	C	0.077697	0.96016	0.340865
387	C	0.132596	0.95908	0.347326
388	C	0.157915	0.501923	0.352885
389	C	0.133617	0.542018	0.337882
390	C	0.079827	0.539098	0.327252
391	N	0.200076	0.505271	0.380339
392	H	0.062529	0.566462	0.647462
393	H	0.210656	0.979787	0.397585
394	H	0.211293	0.534418	0.392362
395	H	0.827659	0.525288	0.397568
396	H	0.827041	0.970298	0.392322
397	H	0.983073	0.570506	0.341119
398	H	0.057765	0.930649	0.341149
399	C	0.24434	0.790786	0.334661
400	N	0.297192	0.789641	0.328492
401	C	0.324738	0.750583	0.323201
402	N	0.297097	0.7114	0.323575
403	C	0.244167	0.710127	0.329514
404	N	0.2191	0.750421	0.335469
405	C	0.380424	0.75077	0.319684
406	C	0.409627	0.789513	0.332536
407	C	0.464696	0.789095	0.331366
408	C	0.492963	0.750092	0.316835
409	C	0.463741	0.711567	0.303357
410	C	0.408646	0.711807	0.304969
411	C	0.216958	0.832162	0.339534
412	C	0.241872	0.87368	0.331052
413	C	0.213936	0.914549	0.333707
414	C	0.160317	0.916968	0.347242
415	C	0.136142	0.874985	0.356422
416	C	0.163351	0.833766	0.352201
417	C	0.216481	0.668774	0.329944
418	C	0.162	0.667437	0.33941
419	C	0.134809	0.62627	0.341332
420	C	0.160506	0.584121	0.334171
421	C	0.214616	0.585919	0.32269
422	C	0.24205	0.626999	0.321087
423	H	0.233385	0.94264	0.323507
424	H	0.28013	0.874553	0.320317
425	H	0.098362	0.873471	0.367942
426	H	0.143526	0.804884	0.359609
427	H	0.141431	0.69649	0.346448
428	H	0.096304	0.627725	0.35123
429	H	0.281151	0.625833	0.313032
430	H	0.234931	0.556956	0.314664
431	H	0.389387	0.683029	0.295044
432	H	0.482341	0.68278	0.291912
433	H	0.483936	0.817409	0.342597
434	H	0.391194	0.818248	0.344349
435	C	0.796805	0.709931	0.334631
436	N	0.744235	0.710654	0.328468
437	C	0.716935	0.749352	0.323183
438	N	0.744562	0.788558	0.323572
439	C	0.797217	0.790238	0.329507
440	N	0.822011	0.750349	0.335449
441	C	0.661409	0.748936	0.319703
442	C	0.631609	0.711089	0.332585
443	C	0.576594	0.711426	0.331405
444	C	0.549003	0.749418	0.316845
445	C	0.578848	0.78702	0.303372
446	C	0.633872	0.78689	0.304984
447	C	0.823961	0.668886	0.33949
448	C	0.799452	0.626788	0.330963
449	C	0.827246	0.586096	0.333653
450	C	0.880252	0.584607	0.347155
451	C	0.903997	0.627214	0.356369
452	C	0.876978	0.668144	0.352174
453	C	0.824883	0.831624	0.329932
454	C	0.878934	0.83361	0.33938
455	C	0.906017	0.874916	0.341339
456	C	0.880654	0.91657	0.334151
457	C	0.827081	0.913978	0.322657
458	C	0.799723	0.872788	0.321067
459	H	0.808255	0.557302	0.323476
460	H	0.761658	0.625185	0.320309
461	H	0.941243	0.629517	0.367898
462	H	0.896464	0.697533	0.359576
463	H	0.899161	0.805044	0.346478
464	H	0.944061	0.87413	0.351243
465	H	0.76099	0.873399	0.313016
466	H	0.807134	0.942387	0.314628
467	H	0.65359	0.814976	0.295035
468	H	0.560781	0.815014	0.291906
469	H	0.556829	0.68386	0.342584
470	H	0.649501	0.683134	0.344332
471	C	0.992091	0.500717	0.665889
472	C	0.961654	0.961111	0.660557
473	C	0.907374	0.958927	0.671188
474	C	0.882354	0.500034	0.686198
475	C	0.90796	0.542496	0.680635
476	C	0.963158	0.540973	0.674182
477	H	0.979562	0.932838	0.980799
478	N	0.838923	0.498578	0.713642
479	C	0.049149	0.499851	0.665899
480	C	0.077697	0.96016	0.674202
481	C	0.132596	0.95908	0.680659
482	C	0.157916	0.501923	0.686218
483	C	0.133616	0.542018	0.671215
484	C	0.079827	0.539098	0.660587
485	N	0.200076	0.505271	0.713672
486	H	0.062529	0.566462	0.980795
487	H	0.210656	0.979787	0.730918
488	H	0.211293	0.534418	0.725695
489	H	0.827657	0.525288	0.730901
490	H	0.827039	0.970298	0.725655
491	H	0.983075	0.570506	0.674455
492	H	0.057765	0.930649	0.674482
493	C	0.24434	0.790786	0.667995
494	N	0.297192	0.78964	0.661825
495	C	0.324738	0.750583	0.656535
496	N	0.297097	0.7114	0.656909
497	C	0.244167	0.710127	0.662846
498	N	0.219099	0.750424	0.668802
499	C	0.380423	0.750769	0.653018
500	C	0.409629	0.789513	0.665869
501	C	0.464694	0.789095	0.664701
502	C	0.492961	0.750092	0.650168
503	C	0.463743	0.711567	0.63669
504	C	0.408644	0.711807	0.638302
505	C	0.216957	0.832162	0.67287
506	C	0.241872	0.87368	0.664387
507	C	0.213936	0.914548	0.66704
508	C	0.160317	0.916968	0.680575
509	C	0.136142	0.874985	0.689756
510	C	0.163351	0.833766	0.685534
511	C	0.216481	0.668774	0.663276
512	C	0.162	0.667436	0.672743
513	C	0.134809	0.62627	0.674669
514	C	0.160506	0.584121	0.667504
515	C	0.214616	0.585919	0.656025
516	C	0.24205	0.626999	0.65442
517	H	0.233385	0.94264	0.656842
518	H	0.28013	0.874553	0.653652
519	H	0.098362	0.873471	0.701275
520	H	0.143526	0.804884	0.692942
521	H	0.141431	0.696493	0.679781
522	H	0.096304	0.627725	0.684563
523	H	0.281151	0.625832	0.646367
524	H	0.234931	0.556956	0.647999
525	H	0.389389	0.683029	0.628377
526	H	0.482343	0.68278	0.625244
527	H	0.483938	0.817409	0.67593
528	H	0.391193	0.818248	0.677682
529	C	0.796807	0.709931	0.667965
530	N	0.744237	0.710657	0.661801
531	C	0.716937	0.749352	0.656519
532	N	0.74456	0.788558	0.656906
533	C	0.797219	0.790242	0.662842
534	N	0.822009	0.750349	0.668782
535	C	0.661407	0.748936	0.653035
536	C	0.631607	0.711088	0.665919
537	C	0.576596	0.711425	0.664738
538	C	0.549001	0.749421	0.650178
539	C	0.57885	0.78702	0.636707
540	C	0.63387	0.786889	0.638318
541	C	0.823963	0.668885	0.672823
542	C	0.799454	0.626788	0.664297
543	C	0.827248	0.586096	0.666987
544	C	0.88025	0.584606	0.680489
545	C	0.903999	0.627213	0.689702
546	C	0.876977	0.668144	0.685508
547	C	0.824882	0.831624	0.663266
548	C	0.878932	0.83361	0.672713
549	C	0.906015	0.874916	0.674672
550	C	0.880656	0.91657	0.667484
551	C	0.827083	0.913978	0.655991
552	C	0.799721	0.872788	0.6544
553	H	0.808257	0.557302	0.656809
554	H	0.761656	0.625185	0.653642
555	H	0.941241	0.629517	0.701232
556	H	0.896463	0.697533	0.692909
557	H	0.899159	0.805044	0.679811
558	H	0.944063	0.874129	0.684577
559	H	0.760992	0.873399	0.646351
560	H	0.807132	0.942386	0.647963
561	H	0.653588	0.814976	0.628371
562	H	0.560779	0.815014	0.625241
563	H	0.556831	0.68386	0.67592
564	H	0.6495	0.683134	0.677665
