data_C216H135N15O18_2018-02-15_10:40:46
#******************************************
#
# CIF file created by Zeo++
# Zeo++ is an open source package to
# analyze microporous materials
#
#*******************************************

_cell_length_a		32.3413   
_cell_length_b		32.3413   
_cell_length_c		29.0466   
_cell_angle_alpha		90   
_cell_angle_beta		90   
_cell_angle_gamma		120   

_symmetry_space_group_name_H-M		'P1'
_symmetry_Int_Tables_number		1
_symmetry_cell_setting		Monoclinic

loop_
_symmetry_equiv_pos_as_xyz
'+x,+y,+z'

loop_
_atom_site_label
_atom_site_type_symbol
_atom_site_fract_x
_atom_site_fract_y
_atom_site_fract_z
1	C	0.307342	0.657585	0.016134
2	C	0.281211	0.638633	0.975148
3	C	0.230908	0.613727	0.975651
4	C	0.205292	0.606365	0.017271
5	C	0.231879	0.625195	0.058318
6	C	0.282186	0.650776	0.057717
7	H	0.298779	0.643204	0.944652
8	H	0.213106	0.600191	0.945334
9	H	0.300456	0.664262	0.087793
10	H	0.214778	0.621246	0.089012
11	C	0.051524	0.530091	0.019596
12	C	0.077402	0.567437	0.321028
13	C	0.127704	0.592126	0.319966
14	C	0.154227	0.580847	0.017831
15	C	0.128492	0.543394	0.049578
16	C	0.078187	0.518162	0.050029
17	H	0.059777	0.577641	0.298593
18	H	0.144868	0.619379	0.296846
19	H	0.146212	0.533308	0.072022
20	H	0.061153	0.49041	0.07262
21	C	0.307342	0.657585	0.34947
22	C	0.281211	0.638633	0.308482
23	C	0.230908	0.613727	0.308984
24	C	0.205292	0.606365	0.350603
25	C	0.231879	0.625195	0.391651
26	C	0.282186	0.650776	0.391052
27	H	0.298779	0.643204	0.277986
28	H	0.213106	0.600191	0.278668
29	H	0.300456	0.664262	0.421127
30	H	0.214778	0.621246	0.422346
31	C	0.051524	0.530091	0.35293
32	C	0.077402	0.567437	0.65436
33	C	0.127704	0.592126	0.653299
34	C	0.154227	0.580847	0.351164
35	C	0.128492	0.543394	0.382909
36	C	0.078187	0.518162	0.38336
37	H	0.059777	0.577641	0.631927
38	H	0.144868	0.619379	0.630178
39	H	0.146212	0.533308	0.405356
40	H	0.061153	0.49041	0.405952
41	C	0.307342	0.657585	0.682804
42	C	0.281211	0.638633	0.641814
43	C	0.230908	0.613727	0.642317
44	C	0.205292	0.606365	0.683936
45	C	0.231879	0.625195	0.724984
46	C	0.282186	0.650776	0.724382
47	H	0.298779	0.643204	0.611319
48	H	0.213106	0.600191	0.612
49	H	0.300456	0.664262	0.754458
50	H	0.214778	0.621246	0.755676
51	C	0.051524	0.530091	0.68626
52	C	0.077402	0.567437	0.987694
53	C	0.127704	0.592126	0.98663
54	C	0.154227	0.580847	0.684498
55	C	0.128492	0.543394	0.716243
56	C	0.078187	0.518162	0.716694
57	H	0.059777	0.577641	0.965261
58	H	0.144868	0.619379	0.963512
59	H	0.146212	0.533308	0.738687
60	H	0.061153	0.49041	0.739286
61	N	0.357932	0.683052	0.015243
62	C	0.383394	0.657924	0.016141
63	C	0.383059	0.733644	0.016145
64	C	0.402104	0.650501	0.97511
65	C	0.427024	0.62512	0.97562
66	C	0.434628	0.607111	0.017282
67	C	0.416023	0.615094	0.058365
68	C	0.390433	0.639812	0.057764
69	C	0.401463	0.758797	0.057716
70	C	0.426179	0.809107	0.058319
71	C	0.433875	0.835692	0.017282
72	C	0.41555	0.810075	0.975672
73	C	0.390185	0.759776	0.975165
74	H	0.440396	0.620685	0.945276
75	H	0.397382	0.663347	0.94459
76	H	0.377117	0.644767	0.087868
77	H	0.420162	0.602134	0.089094
78	H	0.396717	0.740531	0.087785
79	H	0.43938	0.826206	0.089005
80	H	0.419795	0.82788	0.945362
81	H	0.377136	0.742206	0.94468
82	C	0.51094	0.529659	0.019638
83	C	0.473374	0.517963	0.321277
84	C	0.44867	0.543558	0.320202
85	C	0.460158	0.581579	0.017849
86	C	0.497843	0.59354	0.049376
87	H	0.463042	0.489996	0.29899
88	H	0.421275	0.533319	0.297226
89	H	0.508043	0.621471	0.071686
90	O	0.495922	0.450383	0.120122
91	C	0.511375	0.989464	0.019627
92	C	0.497171	0.913287	0.319932
93	C	0.45942	0.886759	0.017845
94	C	0.447741	0.912491	0.049635
95	C	0.472824	0.962793	0.050101
96	H	0.507226	0.896128	0.296774
97	H	0.419993	0.894764	0.072139
98	H	0.462156	0.979828	0.07275
99	N	0.357932	0.683052	0.348578
100	C	0.383394	0.657924	0.349473
101	C	0.383059	0.733644	0.349477
102	C	0.402104	0.650501	0.308446
103	C	0.427024	0.62512	0.308954
104	C	0.434628	0.607111	0.350613
105	C	0.416023	0.615094	0.391699
106	C	0.390433	0.639812	0.391096
107	C	0.401463	0.758797	0.391048
108	C	0.426179	0.809107	0.391651
109	C	0.433875	0.835692	0.350616
110	C	0.41555	0.810075	0.309007
111	C	0.390185	0.759776	0.3085
112	H	0.440396	0.620685	0.278609
113	H	0.397382	0.663347	0.277925
114	H	0.377117	0.644767	0.4212
115	H	0.420162	0.602134	0.422429
116	H	0.396717	0.740531	0.421117
117	H	0.43938	0.826206	0.422336
118	H	0.419795	0.82788	0.278695
119	H	0.377136	0.742206	0.278013
120	C	0.51094	0.529659	0.352971
121	C	0.473374	0.517963	0.654611
122	C	0.44867	0.543558	0.653534
123	C	0.460158	0.581579	0.351181
124	C	0.497843	0.59354	0.38271
125	H	0.463042	0.489996	0.632323
126	H	0.421275	0.533319	0.63056
127	H	0.508043	0.621471	0.405019
128	O	0.495922	0.450383	0.453455
129	C	0.511375	0.989464	0.352961
130	C	0.497171	0.913287	0.653265
131	C	0.45942	0.886759	0.351178
132	C	0.447741	0.912491	0.382968
133	C	0.472824	0.962793	0.383433
134	H	0.507226	0.896128	0.630106
135	H	0.419993	0.894764	0.405473
136	H	0.462156	0.979828	0.406083
137	N	0.357932	0.683052	0.681912
138	C	0.383394	0.657924	0.682807
139	C	0.383059	0.733644	0.682811
140	C	0.402104	0.650501	0.64178
141	C	0.427024	0.62512	0.642286
142	C	0.434628	0.607111	0.683947
143	C	0.416023	0.615094	0.725029
144	C	0.390433	0.639812	0.72443
145	C	0.401463	0.758797	0.724382
146	C	0.426179	0.809107	0.724984
147	C	0.433875	0.835692	0.683947
148	C	0.41555	0.810075	0.642341
149	C	0.390185	0.759776	0.641832
150	H	0.440396	0.620685	0.611942
151	H	0.397382	0.663347	0.611257
152	H	0.377117	0.644767	0.754533
153	H	0.420162	0.602134	0.755759
154	H	0.396717	0.740531	0.754451
155	H	0.43938	0.826206	0.75567
156	H	0.419795	0.82788	0.612028
157	H	0.377136	0.742206	0.611346
158	C	0.51094	0.529659	0.686305
159	C	0.473374	0.517963	0.987942
160	C	0.44867	0.543558	0.986867
161	C	0.460158	0.581579	0.684515
162	C	0.497843	0.59354	0.71604
163	H	0.463042	0.489996	0.965657
164	H	0.421275	0.533319	0.96389
165	H	0.508043	0.621471	0.738353
166	O	0.495922	0.450383	0.786789
167	C	0.511375	0.989464	0.686291
168	C	0.497171	0.913287	0.986599
169	C	0.45942	0.886759	0.684511
170	C	0.447741	0.912491	0.716302
171	C	0.472824	0.962793	0.716767
172	H	0.507226	0.896128	0.963439
173	H	0.419993	0.894764	0.738804
174	H	0.462156	0.979828	0.739416
175	C	0.523062	0.568455	0.049856
176	C	0.522786	0.963586	0.321
177	C	0.523062	0.568455	0.383188
178	C	0.522786	0.963586	0.654332
179	C	0.523062	0.568455	0.716522
180	C	0.522786	0.963586	0.987666
181	C	0.552966	0.494655	0.312086
182	C	0.536275	0.503695	0.020478
183	C	0.545158	0.485894	0.06185
184	H	0.550969	0.579333	0.072287
185	H	0.547332	0.506752	0.281494
186	N	0.525727	0.490481	0.104008
187	C	0.546059	0.0665	0.31212
188	C	0.537352	0.040763	0.020467
189	H	0.55058	0.981216	0.29853
190	H	0.533728	0.048777	0.281559
191	N	0.551282	0.043416	0.103865
192	O	0.529346	0.053031	0.133868
193	C	0.552966	0.494655	0.645419
194	C	0.536275	0.503695	0.353811
195	C	0.545158	0.485894	0.395183
196	H	0.550969	0.579333	0.405618
197	H	0.547332	0.506752	0.614827
198	N	0.525727	0.490481	0.437339
199	C	0.546059	0.0665	0.645453
200	C	0.537352	0.040763	0.353801
201	H	0.55058	0.981216	0.631865
202	H	0.533728	0.048777	0.614892
203	N	0.551282	0.043416	0.437198
204	O	0.529346	0.053031	0.467202
205	C	0.552966	0.494655	0.978753
206	C	0.536275	0.503695	0.687145
207	C	0.545158	0.485894	0.728517
208	H	0.550969	0.579333	0.738952
209	H	0.547332	0.506752	0.948161
210	N	0.525727	0.490481	0.770673
211	C	0.546059	0.0665	0.978787
212	C	0.537352	0.040763	0.687135
213	H	0.55058	0.981216	0.965195
214	H	0.533728	0.048777	0.948226
215	N	0.551282	0.043416	0.770532
216	O	0.529346	0.053031	0.800532
217	N	0.691257	0.349736	0.0158
218	C	0.665519	0.374923	0.016382
219	C	0.666068	0.298809	0.016392
220	C	0.742183	0.375487	0.016361
221	C	0.767476	0.408963	0.051354
222	C	0.817762	0.434812	0.051509
223	C	0.845105	0.427108	0.017843
224	C	0.818921	0.392625	0.983342
225	C	0.768624	0.368	0.982075
226	C	0.632151	0.366844	0.051456
227	C	0.606306	0.391286	0.051622
228	C	0.613916	0.426233	0.017876
229	C	0.648277	0.43442	0.98328
230	C	0.672911	0.408756	0.982023
231	C	0.632127	0.272359	0.98212
232	C	0.606451	0.222063	0.983404
233	C	0.61478	0.195885	0.017888
234	C	0.649862	0.223237	0.051524
235	C	0.674285	0.273525	0.051369
236	H	0.581164	0.382435	0.076736
237	H	0.625747	0.34223	0.076603
238	H	0.697241	0.415704	0.95644
239	H	0.65659	0.459919	0.958647
240	H	0.749272	0.415447	0.076445
241	H	0.834046	0.460058	0.076536
242	H	0.625034	0.289736	0.95664
243	H	0.580832	0.204882	0.958871
244	H	0.658839	0.206963	0.076547
245	H	0.698994	0.291738	0.076443
246	H	0.751239	0.343565	0.956571
247	H	0.8361	0.38422	0.958781
248	C	0.588117	0.452114	0.018727
249	C	0.577709	0.469163	0.311227
250	C	0.571342	0.461433	0.060395
251	H	0.578223	0.450508	0.090994
252	H	0.587406	0.46264	0.27978
253	O	0.557552	0.512682	0.133708
254	C	0.588907	0.144194	0.018735
255	C	0.571536	0.116737	0.311268
256	C	0.555493	0.06744	0.061795
257	C	0.579925	0.118087	0.060357
258	H	0.591086	0.135875	0.090942
259	H	0.577829	0.132948	0.279834
260	O	0.591525	0.053713	0.119588
261	C	0.896793	0.452918	0.01869
262	C	0.924252	0.463058	0.311218
263	C	0.974488	0.487811	0.312075
264	C	0.000224	0.50477	0.020433
265	C	0.973541	0.496165	0.061768
266	C	0.922897	0.46997	0.060323
267	H	0.905105	0.46329	0.09091
268	H	0.908041	0.453189	0.279781
269	H	0.992215	0.493249	0.281509
270	N	0.99757	0.515906	0.103855
271	O	0.987945	0.484301	0.1338
272	O	0.987279	0.545829	0.119652
273	N	0.691257	0.349736	0.349136
274	C	0.665519	0.374923	0.349714
275	C	0.666068	0.298809	0.349728
276	C	0.742183	0.375487	0.349697
277	C	0.767476	0.408963	0.384686
278	C	0.817762	0.434812	0.384841
279	C	0.845105	0.427108	0.351178
280	C	0.818921	0.392625	0.316675
281	C	0.768624	0.368	0.315408
282	C	0.632151	0.366844	0.384789
283	C	0.606306	0.391286	0.384954
284	C	0.613916	0.426233	0.351209
285	C	0.648277	0.43442	0.316615
286	C	0.672911	0.408756	0.315358
287	C	0.632127	0.272359	0.315454
288	C	0.606451	0.222063	0.316737
289	C	0.61478	0.195885	0.351222
290	C	0.649862	0.223237	0.384858
291	C	0.674285	0.273525	0.384703
292	H	0.581164	0.382435	0.410069
293	H	0.625747	0.34223	0.409935
294	H	0.697241	0.415704	0.289774
295	H	0.65659	0.459919	0.291981
296	H	0.749272	0.415447	0.409777
297	H	0.834046	0.460058	0.40987
298	H	0.625034	0.289736	0.289975
299	H	0.580832	0.204882	0.292207
300	H	0.658839	0.206963	0.40988
301	H	0.698994	0.291738	0.409777
302	H	0.751239	0.343565	0.289904
303	H	0.8361	0.38422	0.292114
304	C	0.588117	0.452114	0.352059
305	C	0.577709	0.469163	0.644558
306	C	0.571342	0.461433	0.393727
307	H	0.578223	0.450508	0.424326
308	H	0.587406	0.46264	0.613112
309	O	0.557552	0.512682	0.46704
310	C	0.588907	0.144194	0.352069
311	C	0.571536	0.116737	0.6446
312	C	0.555493	0.06744	0.395128
313	C	0.579925	0.118087	0.393689
314	H	0.591086	0.135875	0.424274
315	H	0.577829	0.132948	0.613167
316	O	0.591525	0.053713	0.452921
317	C	0.896793	0.452918	0.352021
318	C	0.924252	0.463058	0.644551
319	C	0.974488	0.487811	0.645409
320	C	0.000224	0.50477	0.353767
321	C	0.973541	0.496165	0.3951
322	C	0.922897	0.46997	0.393654
323	H	0.905105	0.46329	0.424243
324	H	0.908041	0.453189	0.613112
325	H	0.992215	0.493249	0.614841
326	N	0.99757	0.515906	0.437188
327	O	0.987945	0.484301	0.467133
328	O	0.987279	0.545829	0.452987
329	N	0.691257	0.349736	0.68247
330	C	0.665519	0.374923	0.683048
331	C	0.666068	0.298809	0.683059
332	C	0.742183	0.375487	0.683031
333	C	0.767476	0.408963	0.71802
334	C	0.817762	0.434812	0.718175
335	C	0.845105	0.427108	0.684508
336	C	0.818921	0.392625	0.650008
337	C	0.768624	0.368	0.648741
338	C	0.632151	0.366844	0.718123
339	C	0.606306	0.391286	0.718288
340	C	0.613916	0.426233	0.684542
341	C	0.648277	0.43442	0.64995
342	C	0.672911	0.408756	0.64869
343	C	0.632127	0.272359	0.648786
344	C	0.606451	0.222063	0.65007
345	C	0.61478	0.195885	0.684553
346	C	0.649862	0.223237	0.718188
347	C	0.674285	0.273525	0.718033
348	H	0.581164	0.382435	0.743403
349	H	0.625747	0.34223	0.743269
350	H	0.697241	0.415704	0.623107
351	H	0.65659	0.459919	0.625313
352	H	0.749272	0.415447	0.74311
353	H	0.834046	0.460058	0.7432
354	H	0.625034	0.289736	0.62331
355	H	0.580832	0.204882	0.625541
356	H	0.658839	0.206963	0.743214
357	H	0.698994	0.291738	0.74311
358	H	0.751239	0.343565	0.623237
359	H	0.8361	0.38422	0.625448
360	C	0.588117	0.452114	0.685393
361	C	0.577709	0.469163	0.977892
362	C	0.571342	0.461433	0.72706
363	H	0.578223	0.450508	0.75766
364	H	0.587406	0.46264	0.946446
365	O	0.557552	0.512682	0.800374
366	C	0.588907	0.144194	0.6854
367	C	0.571536	0.116737	0.977933
368	C	0.555493	0.06744	0.728462
369	C	0.579925	0.118087	0.727022
370	H	0.591086	0.135875	0.757608
371	H	0.577829	0.132948	0.946501
372	O	0.591525	0.053713	0.786255
373	C	0.896793	0.452918	0.685355
374	C	0.924252	0.463058	0.977885
375	C	0.974488	0.487811	0.978739
376	C	0.000224	0.50477	0.687097
377	C	0.973541	0.496165	0.728434
378	C	0.922897	0.46997	0.726988
379	H	0.905105	0.46329	0.757577
380	H	0.908041	0.453189	0.946446
381	H	0.992215	0.493249	0.948174
382	N	0.99757	0.515906	0.770522
383	O	0.987945	0.484301	0.800467
384	O	0.987279	0.545829	0.786317
