data_C186H126N24_2018-02-15_10:47:43
#******************************************
#
# CIF file created by Zeo++
# Zeo++ is an open source package to
# analyze microporous materials
#
#*******************************************

_cell_length_a		25.8711   
_cell_length_b		25.8709   
_cell_length_c		29.4592   
_cell_angle_alpha		90   
_cell_angle_beta		90   
_cell_angle_gamma		90.0372   

_symmetry_space_group_name_H-M		'P1'
_symmetry_Int_Tables_number		1
_symmetry_cell_setting		Monoclinic

loop_
_symmetry_equiv_pos_as_xyz
'+x,+y,+z'

loop_
_atom_site_label
_atom_site_type_symbol
_atom_site_fract_x
_atom_site_fract_y
_atom_site_fract_z
1	C	0.914415	0.872643	0.335154
2	C	0.875782	0.909546	0.335481
3	C	0.89865	0.958485	0.336932
4	N	0.950396	0.949011	0.338343
5	C	0.962218	0.897737	0.336947
6	C	0.011235	0.872245	0.336435
7	C	0.059559	0.898951	0.33689
8	N	0.068719	0.950611	0.337532
9	C	0.119921	0.962133	0.337068
10	C	0.14529	0.914524	0.336111
11	C	0.108386	0.875882	0.336478
12	C	0.144249	0.011631	0.336711
13	C	0.116394	0.059382	0.337295
14	N	0.064625	0.068779	0.338206
15	C	0.052808	0.120057	0.337451
16	C	0.100594	0.145237	0.336697
17	C	0.139229	0.108377	0.337029
18	C	0.003815	0.145534	0.336651
19	C	0.955497	0.118892	0.336963
20	N	0.946322	0.067252	0.338174
21	C	0.895138	0.05577	0.337187
22	C	0.869824	0.103402	0.335414
23	C	0.906747	0.142034	0.335601
24	C	0.870835	0.006264	0.3366
25	C	0.815332	0.004563	0.331747
26	C	0.781293	0.015007	0.034942
27	C	0.726973	0.01332	0.029138
28	C	0.704423	0.000972	0.319934
29	C	0.738952	0.990841	0.283543
30	C	0.793037	0.992774	0.289193
31	C	0.00292	0.201032	0.33174
32	C	0.012755	0.235041	0.035092
33	C	0.011322	0.289367	0.029262
34	C	0.999799	0.311929	0.31989
35	C	0.99026	0.277412	0.283355
36	C	0.991949	0.223335	0.289029
37	C	0.199927	0.013574	0.333509
38	C	0.224172	0.028611	0.292529
39	C	0.278383	0.033605	0.289598
40	C	0.310817	0.022743	0.327176
41	C	0.286644	0.006469	0.034559
42	C	0.232221	0.002217	0.037708
43	C	0.012347	0.816545	0.333139
44	C	0.027195	0.792163	0.292175
45	C	0.000786	0.784351	0.037367
46	C	0.004778	0.7299	0.034291
47	C	0.02102	0.705606	0.326963
48	C	0.031905	0.737928	0.289309
49	H	0.044201	0.722208	0.259286
50	H	0.036189	0.814002	0.264293
51	H	0.997567	0.708184	0.06263
52	H	0.99043	0.800547	0.067718
53	H	0.907869	0.833738	0.333443
54	H	0.837193	0.901208	0.334291
55	H	0.976033	0.975852	0.339649
56	H	0.038982	0.041908	0.33824
57	H	0.116612	0.837264	0.336086
58	H	0.184251	0.908169	0.335275
59	H	0.202254	0.037444	0.264662
60	H	0.294016	0.045918	0.259539
61	H	0.216118	0.991618	0.06804
62	H	0.308445	0.99919	0.062828
63	H	0.177809	0.116836	0.336671
64	H	0.107147	0.184176	0.335822
65	H	0.830893	0.109753	0.333786
66	H	0.898655	0.180662	0.33434
67	H	0.020877	0.220324	0.066528
68	H	0.018403	0.312411	0.05679
69	H	0.984725	0.200169	0.261571
70	H	0.981769	0.291398	0.2517
71	H	0.816213	0.985244	0.261812
72	H	0.724977	0.981808	0.252
73	H	0.703921	0.020903	0.056555
74	H	0.795987	0.023854	0.066238
75	C	0.996715	0.365564	0.312226
76	C	0.364006	0.03201	0.323805
77	C	0.030292	0.652415	0.323724
78	C	0.650782	0.997791	0.3123
79	H	0.984353	0.37679	0.281858
80	H	0.375141	0.062819	0.306071
81	H	0.061144	0.641295	0.30606
82	H	0.639517	0.985001	0.282074
83	C	0.006655	0.453687	0.338418
84	C	0.003411	0.482085	0.297348
85	C	0.001843	0.537008	0.296353
86	C	0.004857	0.565248	0.004511
87	C	0.007614	0.537012	0.045524
88	H	0.002023	0.462364	0.267341
89	C	0.009063	0.482452	0.045756
90	H	0.008674	0.556215	0.075891
91	H	0.011156	0.463636	0.076267
92	C	0.995552	0.563876	0.252035
93	H	0.989393	0.537077	0.223928
94	H	0.030113	0.586388	0.244357
95	H	0.962273	0.589743	0.253412
96	N	0.007754	0.401512	0.341163
97	N	0.00072	0.617098	0.007295
98	C	0.562698	0.008193	0.338416
99	C	0.534274	0.004834	0.297366
100	C	0.479347	0.003342	0.296403
101	C	0.45114	0.006546	0.004565
102	C	0.479409	0.009414	0.04556
103	H	0.553982	0.003326	0.267357
104	C	0.533969	0.010791	0.045762
105	H	0.460226	0.010615	0.075933
106	H	0.55281	0.012997	0.076257
107	C	0.452421	0.996941	0.252121
108	H	0.479184	0.990679	0.224007
109	H	0.429971	0.031491	0.244382
110	H	0.42649	0.96368	0.253593
111	N	0.614873	0.009271	0.341126
112	N	0.399292	0.002468	0.007396
113	C	0.914415	0.872643	0.668487
114	C	0.875782	0.909546	0.668813
115	C	0.89865	0.958485	0.670266
116	N	0.950396	0.949011	0.671678
117	C	0.962218	0.897737	0.670279
118	C	0.011235	0.872245	0.669767
119	C	0.059559	0.898951	0.670222
120	N	0.068719	0.950611	0.670867
121	C	0.119921	0.962133	0.670402
122	C	0.14529	0.914524	0.669444
123	C	0.108386	0.875882	0.669811
124	C	0.144249	0.011631	0.670045
125	C	0.116394	0.059382	0.670629
126	N	0.064625	0.068779	0.671539
127	C	0.052808	0.120057	0.670785
128	C	0.100594	0.145237	0.670032
129	C	0.139229	0.108377	0.670361
130	C	0.003815	0.145534	0.669984
131	C	0.955497	0.118892	0.670296
132	N	0.946322	0.067252	0.671508
133	C	0.895138	0.05577	0.67052
134	C	0.869824	0.103402	0.668748
135	C	0.906747	0.142034	0.668935
136	C	0.870835	0.006264	0.669933
137	C	0.815332	0.004563	0.665079
138	C	0.781293	0.015007	0.368275
139	C	0.726973	0.01332	0.362471
140	C	0.704423	0.000972	0.653269
141	C	0.738952	0.990841	0.616877
142	C	0.793037	0.992774	0.622525
143	C	0.00292	0.201032	0.665076
144	C	0.012755	0.235041	0.368425
145	C	0.011322	0.289367	0.362596
146	C	0.999799	0.311929	0.653222
147	C	0.99026	0.277412	0.616687
148	C	0.991949	0.223335	0.622362
149	C	0.199927	0.013574	0.666841
150	C	0.224172	0.028611	0.625862
151	C	0.278383	0.033605	0.622933
152	C	0.310817	0.022743	0.66051
153	C	0.286644	0.006469	0.367892
154	C	0.232221	0.002217	0.371042
155	C	0.012347	0.816545	0.666471
156	C	0.027195	0.792163	0.625509
157	C	0.000786	0.784351	0.370699
158	C	0.004778	0.7299	0.367624
159	C	0.02102	0.705606	0.660296
160	C	0.031905	0.737928	0.622641
161	H	0.044201	0.722208	0.592619
162	H	0.036189	0.814002	0.597626
163	H	0.997567	0.708184	0.395964
164	H	0.99043	0.800547	0.401053
165	H	0.907869	0.833738	0.666776
166	H	0.837193	0.901208	0.667625
167	H	0.976033	0.975852	0.672981
168	H	0.038982	0.041908	0.671573
169	H	0.116612	0.837264	0.669421
170	H	0.184251	0.908169	0.668609
171	H	0.202254	0.037444	0.597996
172	H	0.294016	0.045918	0.592871
173	H	0.216118	0.991618	0.401372
174	H	0.308445	0.99919	0.396161
175	H	0.177809	0.116836	0.670004
176	H	0.107147	0.184176	0.669156
177	H	0.830893	0.109753	0.667119
178	H	0.898655	0.180662	0.667672
179	H	0.020877	0.220324	0.399861
180	H	0.018403	0.312411	0.390123
181	H	0.984725	0.200169	0.594904
182	H	0.981769	0.291398	0.585033
183	H	0.816213	0.985244	0.595145
184	H	0.724977	0.981808	0.585335
185	H	0.703921	0.020903	0.389888
186	H	0.795987	0.023854	0.399573
187	C	0.996715	0.365564	0.64556
188	C	0.364006	0.03201	0.657139
189	C	0.030292	0.652415	0.657058
190	C	0.650782	0.997791	0.645632
191	H	0.984353	0.37679	0.61519
192	H	0.375141	0.062819	0.639403
193	H	0.061144	0.641295	0.639393
194	H	0.639517	0.985001	0.615407
195	C	0.006655	0.453687	0.671753
196	C	0.003411	0.482085	0.630682
197	C	0.001843	0.537008	0.629688
198	C	0.004857	0.565248	0.337844
199	C	0.007614	0.537012	0.378856
200	H	0.002023	0.462364	0.600675
201	C	0.009063	0.482452	0.37909
202	H	0.008674	0.556215	0.409223
203	H	0.011156	0.463636	0.4096
204	C	0.995552	0.563876	0.585369
205	H	0.989393	0.537077	0.557262
206	H	0.030113	0.586388	0.57769
207	H	0.962273	0.589743	0.586747
208	N	0.007754	0.401512	0.674495
209	N	0.00072	0.617098	0.340627
210	C	0.562698	0.008193	0.671749
211	C	0.534274	0.004834	0.630699
212	C	0.479347	0.003342	0.629735
213	C	0.45114	0.006546	0.3379
214	C	0.479409	0.009414	0.378893
215	H	0.553982	0.003326	0.600692
216	C	0.533969	0.010791	0.379094
217	H	0.460226	0.010615	0.409268
218	H	0.55281	0.012997	0.40959
219	C	0.452421	0.996941	0.585454
220	H	0.479184	0.990679	0.55734
221	H	0.429971	0.031491	0.577718
222	H	0.42649	0.96368	0.586927
223	N	0.614873	0.009271	0.674458
224	N	0.399292	0.002468	0.340729
225	C	0.914415	0.872643	0.001819
226	C	0.875782	0.909546	0.002148
227	C	0.89865	0.958485	0.003598
228	N	0.950396	0.949011	0.00501
229	C	0.962218	0.897737	0.003615
230	C	0.011235	0.872245	0.003102
231	C	0.059559	0.898951	0.003557
232	N	0.068719	0.950611	0.004199
233	C	0.119921	0.962133	0.003734
234	C	0.14529	0.914524	0.002776
235	C	0.108386	0.875882	0.003146
236	C	0.144249	0.011631	0.003377
237	C	0.116394	0.059382	0.003961
238	N	0.064625	0.068779	0.004874
239	C	0.052808	0.120057	0.004117
240	C	0.100594	0.145237	0.003364
241	C	0.139229	0.108377	0.003696
242	C	0.003815	0.145534	0.003316
243	C	0.955497	0.118892	0.003628
244	N	0.946322	0.067252	0.00484
245	C	0.895138	0.05577	0.003853
246	C	0.869824	0.103402	0.002081
247	C	0.906747	0.142034	0.002267
248	C	0.870835	0.006264	0.003265
249	C	0.815332	0.004563	0.998414
250	C	0.781293	0.015007	0.701607
251	C	0.726973	0.01332	0.695806
252	C	0.704423	0.000972	0.986602
253	C	0.738952	0.990841	0.950209
254	C	0.793037	0.992774	0.955861
255	C	0.00292	0.201032	0.998408
256	C	0.012755	0.235041	0.701757
257	C	0.011322	0.289367	0.695928
258	C	0.999799	0.311929	0.986557
259	C	0.99026	0.277412	0.950022
260	C	0.991949	0.223335	0.955694
261	C	0.199927	0.013574	0.000176
262	C	0.224172	0.028611	0.959198
263	C	0.278383	0.033605	0.956265
264	C	0.310817	0.022743	0.993842
265	C	0.286644	0.006469	0.701227
266	C	0.232221	0.002217	0.704374
267	C	0.012347	0.816545	0.999806
268	C	0.027195	0.792163	0.958841
269	C	0.000786	0.784351	0.704035
270	C	0.004778	0.7299	0.700959
271	C	0.02102	0.705606	0.993628
272	C	0.031905	0.737928	0.955976
273	H	0.044201	0.722208	0.925952
274	H	0.036189	0.814002	0.930958
275	H	0.997567	0.708184	0.729297
276	H	0.99043	0.800547	0.734385
277	H	0.907869	0.833738	0.000108
278	H	0.837193	0.901208	0.000957
279	H	0.976033	0.975852	0.006317
280	H	0.038982	0.041908	0.004908
281	H	0.116612	0.837264	0.002753
282	H	0.184251	0.908169	0.001941
283	H	0.202254	0.037444	0.931329
284	H	0.294016	0.045918	0.926206
285	H	0.216118	0.991618	0.734707
286	H	0.308445	0.99919	0.729497
287	H	0.177809	0.116836	0.003337
288	H	0.107147	0.184176	0.002488
289	H	0.830893	0.109753	0.000451
290	H	0.898655	0.180662	0.001008
291	H	0.020877	0.220324	0.733194
292	H	0.018403	0.312411	0.723458
293	H	0.984725	0.200169	0.928239
294	H	0.981769	0.291398	0.918368
295	H	0.816213	0.985244	0.928477
296	H	0.724977	0.981808	0.918667
297	H	0.703921	0.020903	0.723224
298	H	0.795987	0.023854	0.732905
299	C	0.996715	0.365564	0.978893
300	C	0.364006	0.03201	0.990471
301	C	0.030292	0.652415	0.99039
302	C	0.650782	0.997791	0.978967
303	H	0.984353	0.37679	0.948525
304	H	0.375141	0.062819	0.972738
305	H	0.061144	0.641295	0.972728
306	H	0.639517	0.985001	0.948742
307	C	0.006655	0.453687	0.005085
308	C	0.003411	0.482085	0.964014
309	C	0.001843	0.537008	0.96302
310	C	0.004857	0.565248	0.671176
311	C	0.007614	0.537012	0.712192
312	H	0.002023	0.462364	0.934007
313	C	0.009063	0.482452	0.712422
314	H	0.008674	0.556215	0.742559
315	H	0.011156	0.463636	0.742936
316	C	0.995552	0.563876	0.918701
317	H	0.989393	0.537077	0.890594
318	H	0.030113	0.586388	0.911022
319	H	0.962273	0.589743	0.920079
320	N	0.007754	0.401512	0.007828
321	N	0.00072	0.617098	0.673959
322	C	0.562698	0.008193	0.005081
323	C	0.534274	0.004834	0.964035
324	C	0.479347	0.003342	0.963071
325	C	0.45114	0.006546	0.671233
326	C	0.479409	0.009414	0.712226
327	H	0.553982	0.003326	0.934024
328	C	0.533969	0.010791	0.712429
329	H	0.460226	0.010615	0.7426
330	H	0.55281	0.012997	0.742922
331	C	0.452421	0.996941	0.918789
332	H	0.479184	0.990679	0.890676
333	H	0.429971	0.031491	0.91105
334	H	0.42649	0.96368	0.920259
335	N	0.614873	0.009271	0.007794
336	N	0.399292	0.002468	0.674064
