data_C189H108N18O18_2018-02-15_10:41:35
#******************************************
#
# CIF file created by Zeo++
# Zeo++ is an open source package to
# analyze microporous materials
#
#*******************************************

_cell_length_a		29.9255   
_cell_length_b		29.9255   
_cell_length_c		29.8078   
_cell_angle_alpha		90   
_cell_angle_beta		90   
_cell_angle_gamma		120   

_symmetry_space_group_name_H-M		'P1'
_symmetry_Int_Tables_number		1
_symmetry_cell_setting		Monoclinic

loop_
_symmetry_equiv_pos_as_xyz
'+x,+y,+z'

loop_
_atom_site_label
_atom_site_type_symbol
_atom_site_fract_x
_atom_site_fract_y
_atom_site_fract_z
1	C	0.058561	0.530088	0.007368
2	N	0.03305	0.517324	0.300784
3	C	0.029188	0.515406	0.047866
4	C	0.047481	0.524563	0.092257
5	O	0.016366	0.509024	0.123151
6	C	0.058561	0.530088	0.340703
7	N	0.03305	0.517324	0.634119
8	C	0.029188	0.515406	0.381199
9	C	0.047481	0.524563	0.42559
10	O	0.016366	0.509024	0.456484
11	C	0.058561	0.530088	0.674035
12	N	0.03305	0.517324	0.967451
13	C	0.029188	0.515406	0.714534
14	C	0.047481	0.524563	0.758925
15	O	0.016366	0.509024	0.78982
16	O	0.092487	0.547043	0.105811
17	O	0.092487	0.547043	0.439143
18	O	0.092487	0.547043	0.772479
19	C	0.281789	0.641701	0.000677
20	C	0.311568	0.61669	0.00061
21	C	0.366356	0.641698	0.000637
22	C	0.391368	0.696489	0.00059
23	C	0.366358	0.72627	0.000671
24	C	0.311567	0.696489	0.000721
25	C	0.394807	0.613248	0.001103
26	C	0.369696	0.558159	0.001523
27	C	0.396608	0.530756	0.002945
28	C	0.450821	0.557237	0.004226
29	C	0.477301	0.61145	0.002962
30	C	0.449897	0.63836	0.001539
31	C	0.224887	0.613248	0.00114
32	C	0.194909	0.558159	0.001576
33	C	0.140593	0.530756	0.002972
34	C	0.112861	0.557237	0.004224
35	C	0.140593	0.61145	0.002928
36	C	0.194908	0.63836	0.001506
37	C	0.394808	0.783169	0.001133
38	C	0.369699	0.81315	0.001489
39	C	0.396611	0.867467	0.002905
40	C	0.450821	0.895195	0.004216
41	C	0.477302	0.867463	0.002979
42	C	0.449898	0.813146	0.00158
43	H	0.121446	0.491244	0.003872
44	H	0.211421	0.535637	0.001254
45	H	0.121441	0.631812	0.003755
46	H	0.211416	0.677393	0.001056
47	H	0.330665	0.796643	0.00104
48	H	0.376247	0.886617	0.00374
49	H	0.472422	0.796635	0.001274
50	H	0.516815	0.886613	0.003885
51	H	0.472423	0.677397	0.00118
52	H	0.516813	0.631812	0.003832
53	H	0.376243	0.49124	0.003799
54	H	0.330661	0.535633	0.00113
55	H	0.292231	0.578016	0.00059
56	H	0.292231	0.715829	0.000902
57	H	0.430041	0.715825	0.000526
58	C	0.727876	0.364745	0.003321
59	C	0.6981	0.389755	0.003299
60	C	0.643313	0.364745	0.003313
61	C	0.618302	0.309957	0.003315
62	C	0.643313	0.280181	0.003327
63	C	0.6981	0.309957	0.00333
64	C	0.614865	0.393193	0.003207
65	C	0.639972	0.448286	0.003173
66	C	0.613036	0.47569	0.002962
67	C	0.558824	0.449235	0.002633
68	C	0.532369	0.395022	0.002955
69	C	0.559772	0.368086	0.003163
70	C	0.784773	0.393193	0.003213
71	C	0.814759	0.448286	0.003183
72	C	0.869098	0.47569	0.002972
73	C	0.89686	0.449235	0.002633
74	C	0.869098	0.395022	0.002952
75	C	0.814758	0.368085	0.003163
76	C	0.614864	0.223283	0.003217
77	C	0.639972	0.1933	0.00317
78	C	0.613036	0.138959	0.002959
79	C	0.558823	0.1112	0.002636
80	C	0.532369	0.138959	0.002965
81	C	0.559773	0.1933	0.00318
82	H	0.888271	0.515217	0.003063
83	H	0.79825	0.470813	0.00339
84	H	0.888268	0.374663	0.003022
85	H	0.798247	0.329048	0.003332
86	H	0.67901	0.20981	0.003351
87	H	0.633394	0.119787	0.003036
88	H	0.537245	0.20981	0.003374
89	H	0.492839	0.119787	0.003049
90	H	0.537246	0.329049	0.003343
91	H	0.492839	0.374664	0.003032
92	H	0.633393	0.515221	0.003049
93	H	0.67901	0.470813	0.003369
94	H	0.717437	0.42843	0.00319
95	H	0.717437	0.29062	0.003277
96	H	0.579628	0.29062	0.003236
97	C	0.477969	0.530084	0.00737
98	N	0.490725	0.517332	0.300787
99	C	0.516774	0.491282	0.296972
100	C	0.531644	0.476411	0.003056
101	N	0.518852	0.489203	0.042733
102	C	0.492657	0.515398	0.047868
103	H	0.525139	0.482917	0.26592
104	C	0.48351	0.524543	0.09226
105	O	0.499065	0.508982	0.123154
106	O	0.461008	0.547047	0.105814
107	H	0.446902	0.561157	0.089641
108	C	0.47797	0.949497	0.007363
109	N	0.490724	0.97501	0.300781
110	C	0.516773	0.027107	0.296968
111	C	0.531646	0.056845	0.003052
112	N	0.518852	0.031259	0.04273
113	C	0.492655	0.978864	0.047862
114	H	0.52514	0.04384	0.265917
115	C	0.48351	0.960571	0.092252
116	O	0.499074	0.991683	0.123148
117	O	0.461	0.915564	0.105804
118	H	0.446856	0.88735	0.08963
119	C	0.980953	0.491275	0.29697
120	C	0.951212	0.476411	0.003052
121	N	0.976796	0.48921	0.042732
122	H	0.96422	0.482905	0.265918
123	H	0.120701	0.561123	0.089638
124	C	0.281789	0.641701	0.334012
125	C	0.311568	0.61669	0.333945
126	C	0.366356	0.641698	0.333969
127	C	0.391368	0.696489	0.333923
128	C	0.366358	0.72627	0.334002
129	C	0.311567	0.696489	0.334053
130	C	0.394807	0.613248	0.334438
131	C	0.369696	0.558159	0.334854
132	C	0.396608	0.530756	0.336278
133	C	0.450821	0.557237	0.337559
134	C	0.477301	0.61145	0.336294
135	C	0.449897	0.63836	0.334871
136	C	0.224887	0.613248	0.334473
137	C	0.194909	0.558159	0.334909
138	C	0.140593	0.530756	0.336304
139	C	0.112861	0.557237	0.337559
140	C	0.140593	0.61145	0.336261
141	C	0.194908	0.63836	0.334838
142	C	0.394808	0.783169	0.334468
143	C	0.369699	0.81315	0.334822
144	C	0.396611	0.867467	0.336237
145	C	0.450821	0.895195	0.337549
146	C	0.477302	0.867463	0.336311
147	C	0.449898	0.813146	0.334913
148	H	0.121446	0.491244	0.337207
149	H	0.211421	0.535637	0.334588
150	H	0.121441	0.631812	0.337089
151	H	0.211416	0.677393	0.33439
152	H	0.330665	0.796643	0.334373
153	H	0.376247	0.886617	0.337073
154	H	0.472422	0.796635	0.334608
155	H	0.516815	0.886613	0.337217
156	H	0.472423	0.677397	0.334513
157	H	0.516813	0.631812	0.337167
158	H	0.376243	0.49124	0.337133
159	H	0.330661	0.535633	0.334462
160	H	0.292231	0.578016	0.333923
161	H	0.292231	0.715829	0.334234
162	H	0.430041	0.715825	0.333861
163	C	0.727876	0.364745	0.336653
164	C	0.6981	0.389755	0.336633
165	C	0.643313	0.364745	0.336647
166	C	0.618302	0.309957	0.33665
167	C	0.643313	0.280181	0.33666
168	C	0.6981	0.309957	0.336663
169	C	0.614865	0.393193	0.336539
170	C	0.639972	0.448286	0.336509
171	C	0.613036	0.47569	0.336294
172	C	0.558824	0.449235	0.335969
173	C	0.532369	0.395022	0.336288
174	C	0.559772	0.368086	0.336496
175	C	0.784773	0.393193	0.336546
176	C	0.814759	0.448286	0.336519
177	C	0.869098	0.47569	0.336304
178	C	0.89686	0.449235	0.335966
179	C	0.869098	0.395022	0.336284
180	C	0.814758	0.368085	0.336496
181	C	0.614864	0.223283	0.336553
182	C	0.639972	0.1933	0.336506
183	C	0.613036	0.138959	0.336291
184	C	0.558823	0.1112	0.335969
185	C	0.532369	0.138959	0.336298
186	C	0.559773	0.1933	0.336512
187	H	0.888271	0.515217	0.336395
188	H	0.79825	0.470813	0.336724
189	H	0.888268	0.374663	0.336358
190	H	0.798247	0.329048	0.336667
191	H	0.67901	0.20981	0.336684
192	H	0.633394	0.119787	0.336368
193	H	0.537245	0.20981	0.336707
194	H	0.492839	0.119787	0.336385
195	H	0.537246	0.329049	0.336677
196	H	0.492839	0.374664	0.336368
197	H	0.633393	0.515221	0.336382
198	H	0.67901	0.470813	0.336704
199	H	0.717437	0.42843	0.336526
200	H	0.717437	0.29062	0.33661
201	H	0.579628	0.29062	0.336569
202	C	0.477969	0.530084	0.340703
203	N	0.490725	0.517332	0.634119
204	C	0.516774	0.491282	0.630305
205	C	0.531644	0.476411	0.336388
206	N	0.518852	0.489203	0.376066
207	C	0.492657	0.515398	0.381202
208	H	0.525139	0.482917	0.599252
209	C	0.48351	0.524543	0.425593
210	O	0.499065	0.508982	0.456488
211	O	0.461008	0.547047	0.439147
212	H	0.446902	0.561157	0.422976
213	C	0.47797	0.949497	0.340696
214	N	0.490724	0.97501	0.634116
215	C	0.516773	0.027107	0.630301
216	C	0.531646	0.056845	0.336385
217	N	0.518852	0.031259	0.376062
218	C	0.492655	0.978864	0.381195
219	H	0.52514	0.04384	0.599249
220	C	0.48351	0.960571	0.425586
221	O	0.499074	0.991683	0.456481
222	O	0.461	0.915564	0.439137
223	H	0.446856	0.88735	0.422963
224	C	0.980953	0.491275	0.630305
225	C	0.951212	0.476411	0.336385
226	N	0.976796	0.48921	0.376066
227	H	0.96422	0.482905	0.599252
228	H	0.120701	0.561123	0.422973
229	C	0.281789	0.641701	0.667345
230	C	0.311568	0.61669	0.667278
231	C	0.366356	0.641698	0.667302
232	C	0.391368	0.696489	0.667258
233	C	0.366358	0.72627	0.667335
234	C	0.311567	0.696489	0.667385
235	C	0.394807	0.613248	0.667771
236	C	0.369696	0.558159	0.668187
237	C	0.396608	0.530756	0.669613
238	C	0.450821	0.557237	0.670895
239	C	0.477301	0.61145	0.669626
240	C	0.449897	0.63836	0.668204
241	C	0.224887	0.613248	0.667805
242	C	0.194909	0.558159	0.668241
243	C	0.140593	0.530756	0.669637
244	C	0.112861	0.557237	0.670891
245	C	0.140593	0.61145	0.669593
246	C	0.194908	0.63836	0.66817
247	C	0.394808	0.783169	0.667801
248	C	0.369699	0.81315	0.668157
249	C	0.396611	0.867467	0.669569
250	C	0.450821	0.895195	0.670885
251	C	0.477302	0.867463	0.669643
252	C	0.449898	0.813146	0.668248
253	H	0.121446	0.491244	0.670539
254	H	0.211421	0.535637	0.667922
255	H	0.121441	0.631812	0.670422
256	H	0.211416	0.677393	0.667724
257	H	0.330665	0.796643	0.667707
258	H	0.376247	0.886617	0.670408
259	H	0.472422	0.796635	0.667942
260	H	0.516815	0.886613	0.670552
261	H	0.472423	0.677397	0.667845
262	H	0.516813	0.631812	0.670499
263	H	0.376243	0.49124	0.670465
264	H	0.330661	0.535633	0.667795
265	H	0.292231	0.578016	0.667258
266	H	0.292231	0.715829	0.667567
267	H	0.430041	0.715825	0.667194
268	C	0.727876	0.364745	0.669989
269	C	0.6981	0.389755	0.669965
270	C	0.643313	0.364745	0.669982
271	C	0.618302	0.309957	0.669982
272	C	0.643313	0.280181	0.669995
273	C	0.6981	0.309957	0.669995
274	C	0.614865	0.393193	0.669871
275	C	0.639972	0.448286	0.669841
276	C	0.613036	0.47569	0.66963
277	C	0.558824	0.449235	0.669301
278	C	0.532369	0.395022	0.66962
279	C	0.559772	0.368086	0.669831
280	C	0.784773	0.393193	0.669878
281	C	0.814759	0.448286	0.669851
282	C	0.869098	0.47569	0.669637
283	C	0.89686	0.449235	0.669298
284	C	0.869098	0.395022	0.669616
285	C	0.814758	0.368085	0.669828
286	C	0.614864	0.223283	0.669885
287	C	0.639972	0.1933	0.669838
288	C	0.613036	0.138959	0.669626
289	C	0.558823	0.1112	0.669301
290	C	0.532369	0.138959	0.669633
291	C	0.559773	0.1933	0.669848
292	H	0.888271	0.515217	0.669727
293	H	0.79825	0.470813	0.670056
294	H	0.888268	0.374663	0.66969
295	H	0.798247	0.329048	0.669999
296	H	0.67901	0.20981	0.670019
297	H	0.633394	0.119787	0.669704
298	H	0.537245	0.20981	0.670042
299	H	0.492839	0.119787	0.669717
300	H	0.537246	0.329049	0.670009
301	H	0.492839	0.374664	0.6697
302	H	0.633393	0.515221	0.669717
303	H	0.67901	0.470813	0.670036
304	H	0.717437	0.42843	0.669858
305	H	0.717437	0.29062	0.669945
306	H	0.579628	0.29062	0.669902
307	C	0.477969	0.530084	0.674038
308	N	0.490725	0.517332	0.967454
309	C	0.516774	0.491282	0.96364
310	C	0.531644	0.476411	0.66972
311	N	0.518852	0.489203	0.709401
312	C	0.492657	0.515398	0.714534
313	H	0.525139	0.482917	0.932588
314	C	0.48351	0.524543	0.758925
315	O	0.499065	0.508982	0.78982
316	O	0.461008	0.547047	0.772482
317	H	0.446902	0.561157	0.756308
318	C	0.47797	0.949497	0.674031
319	N	0.490724	0.97501	0.967448
320	C	0.516773	0.027107	0.963637
321	C	0.531646	0.056845	0.66972
322	N	0.518852	0.031259	0.709398
323	C	0.492655	0.978864	0.714527
324	H	0.52514	0.04384	0.932584
325	C	0.48351	0.960571	0.758918
326	O	0.499074	0.991683	0.789816
327	O	0.461	0.915564	0.772472
328	H	0.446856	0.88735	0.756295
329	C	0.980953	0.491275	0.963637
330	C	0.951212	0.476411	0.66972
331	N	0.976796	0.48921	0.709398
332	H	0.96422	0.482905	0.932584
333	H	0.120701	0.561123	0.756305
