data_C180H108N30O12_2018-02-15_10:47:44
#******************************************
#
# CIF file created by Zeo++
# Zeo++ is an open source package to
# analyze microporous materials
#
#*******************************************

_cell_length_a		25.7812   
_cell_length_b		25.7811   
_cell_length_c		29.3416   
_cell_angle_alpha		90   
_cell_angle_beta		90   
_cell_angle_gamma		90.0372   

_symmetry_space_group_name_H-M		'P1'
_symmetry_Int_Tables_number		1
_symmetry_cell_setting		Monoclinic

loop_
_symmetry_equiv_pos_as_xyz
'+x,+y,+z'

loop_
_atom_site_label
_atom_site_type_symbol
_atom_site_fract_x
_atom_site_fract_y
_atom_site_fract_z
1	C	0.783183	0.016826	0.037402
2	C	0.728763	0.015102	0.031543
3	C	0.014381	0.237414	0.037461
4	C	0.012963	0.291839	0.031565
5	C	0.289373	0.009318	0.034809
6	C	0.234878	0.005653	0.039046
7	C	0.003991	0.785957	0.038782
8	C	0.007404	0.731436	0.034605
9	H	0.000861	0.709086	0.062855
10	H	0.994793	0.80165	0.069781
11	H	0.219266	0.996177	0.070017
12	H	0.311791	0.002666	0.062992
13	H	0.02228	0.222625	0.069073
14	H	0.019848	0.314986	0.059239
15	H	0.705611	0.022361	0.059128
16	H	0.797948	0.025374	0.068894
17	C	0.009994	0.538961	0.049144
18	C	0.011126	0.484224	0.049097
19	H	0.011505	0.558076	0.079703
20	H	0.013303	0.465101	0.079614
21	N	0.004678	0.619462	0.010909
22	C	0.48172	0.012046	0.049184
23	C	0.536458	0.013136	0.049123
24	H	0.462614	0.013722	0.079737
25	H	0.55559	0.015467	0.079626
26	N	0.401213	0.006661	0.010987
27	N	0.009429	0.403544	0.010479
28	N	0.617109	0.011277	0.010483
29	C	0.916101	0.874553	0.337414
30	C	0.877356	0.911549	0.33777
31	C	0.900385	0.960624	0.339246
32	N	0.952258	0.951225	0.340686
33	C	0.96402	0.899827	0.339205
34	C	0.013206	0.874425	0.338599
35	C	0.061716	0.901002	0.339102
36	N	0.070802	0.952784	0.339957
37	C	0.122133	0.964223	0.339274
38	C	0.147663	0.91649	0.33802
39	C	0.110646	0.877741	0.338331
40	C	0.146338	0.013903	0.338843
41	C	0.118576	0.061836	0.339441
42	N	0.066687	0.071187	0.340695
43	C	0.054927	0.122591	0.339608
44	C	0.102841	0.147916	0.338368
45	C	0.141588	0.110941	0.338636
46	C	0.005749	0.147982	0.338866
47	C	0.957243	0.121448	0.339257
48	N	0.948148	0.069678	0.340448
49	C	0.896832	0.058263	0.339429
50	C	0.871341	0.10601	0.337633
51	C	0.908366	0.144755	0.337863
52	C	0.872644	0.008574	0.338846
53	C	0.817172	0.006844	0.333889
54	C	0.706321	0.003139	0.32201
55	C	0.740837	0.993446	0.285312
56	C	0.795032	0.995455	0.291002
57	C	0.00485	0.203453	0.333831
58	C	0.001745	0.314296	0.32189
59	C	0.992499	0.279796	0.285079
60	C	0.994194	0.225599	0.290811
61	C	0.201927	0.015793	0.33484
62	C	0.225247	0.029032	0.292815
63	C	0.279546	0.033273	0.288773
64	C	0.3128	0.023694	0.326315
65	C	0.014254	0.818818	0.334533
66	C	0.027261	0.795382	0.292507
67	C	0.021689	0.707907	0.326139
68	C	0.031235	0.741067	0.288519
69	H	0.041817	0.725924	0.257616
70	H	0.035121	0.817899	0.2646
71	H	0.909563	0.835501	0.335687
72	H	0.838621	0.903202	0.336543
73	H	0.97798	0.97816	0.341951
74	H	0.040959	0.044233	0.341198
75	H	0.118824	0.838968	0.337577
76	H	0.186768	0.910152	0.336905
77	H	0.202665	0.036765	0.264929
78	H	0.294613	0.043907	0.257851
79	H	0.180318	0.119365	0.337796
80	H	0.10939	0.186987	0.337054
81	H	0.832262	0.112354	0.335967
82	H	0.900265	0.183528	0.336553
83	H	0.987193	0.202279	0.263234
84	H	0.984246	0.293848	0.253247
85	H	0.818363	0.988249	0.263481
86	H	0.726786	0.984707	0.253563
87	C	0.998813	0.367958	0.314246
88	C	0.36626	0.031059	0.32127
89	C	0.029083	0.654445	0.321194
90	C	0.65266	0.99999	0.314426
91	H	0.987083	0.379426	0.283624
92	H	0.377988	0.056389	0.297837
93	H	0.054478	0.642739	0.297821
94	H	0.641151	0.98755	0.284005
95	C	0.008524	0.455741	0.341396
96	C	0.005335	0.48439	0.300285
97	C	0.004079	0.539454	0.299749
98	C	0.007266	0.567455	0.008073
99	H	0.003573	0.465287	0.269839
100	N	0.998314	0.566838	0.258252
101	O	0.035135	0.557619	0.231369
102	O	0.956392	0.555574	0.238757
103	N	0.009429	0.403544	0.343812
104	C	0.564917	0.010327	0.341426
105	C	0.536266	0.00701	0.300322
106	C	0.481198	0.005808	0.2998
107	C	0.453218	0.009155	0.008124
108	H	0.555379	0.005172	0.269884
109	N	0.453775	0.999935	0.258331
110	O	0.463056	0.036666	0.231356
111	O	0.46493	0.957947	0.238933
112	N	0.617109	0.011277	0.343815
113	C	0.916101	0.874553	0.670747
114	C	0.877356	0.911549	0.671105
115	C	0.900385	0.960624	0.67258
116	N	0.952258	0.951225	0.674019
117	C	0.96402	0.899827	0.67254
118	C	0.013206	0.874425	0.671933
119	C	0.061716	0.901002	0.672434
120	N	0.070802	0.952784	0.673289
121	C	0.122133	0.964223	0.672608
122	C	0.147663	0.91649	0.671354
123	C	0.110646	0.877741	0.671664
124	C	0.146338	0.013903	0.672178
125	C	0.118576	0.061836	0.672775
126	N	0.066687	0.071187	0.674029
127	C	0.054927	0.122591	0.672942
128	C	0.102841	0.147916	0.671701
129	C	0.141588	0.110941	0.67197
130	C	0.005749	0.147982	0.672199
131	C	0.957243	0.121448	0.672591
132	N	0.948148	0.069678	0.67378
133	C	0.896832	0.058263	0.672761
134	C	0.871341	0.10601	0.670965
135	C	0.908366	0.144755	0.671197
136	C	0.872644	0.008574	0.672178
137	C	0.817172	0.006844	0.667223
138	C	0.783183	0.016826	0.370736
139	C	0.728763	0.015102	0.364878
140	C	0.706321	0.003139	0.655342
141	C	0.740837	0.993446	0.618647
142	C	0.795032	0.995455	0.624335
143	C	0.00485	0.203453	0.667165
144	C	0.014381	0.237414	0.370794
145	C	0.012963	0.291839	0.364898
146	C	0.001745	0.314296	0.655223
147	C	0.992499	0.279796	0.618412
148	C	0.994194	0.225599	0.624144
149	C	0.201927	0.015793	0.668174
150	C	0.225247	0.029032	0.626148
151	C	0.279546	0.033273	0.622106
152	C	0.3128	0.023694	0.65965
153	C	0.289373	0.009318	0.368143
154	C	0.234878	0.005653	0.372379
155	C	0.014254	0.818818	0.667867
156	C	0.027261	0.795382	0.625841
157	C	0.003991	0.785957	0.372116
158	C	0.007404	0.731436	0.367938
159	C	0.021689	0.707907	0.659473
160	C	0.031235	0.741067	0.621854
161	H	0.041817	0.725924	0.590949
162	H	0.035121	0.817899	0.597932
163	H	0.000861	0.709086	0.396188
164	H	0.994793	0.80165	0.403113
165	H	0.909563	0.835501	0.669019
166	H	0.838621	0.903202	0.669878
167	H	0.97798	0.97816	0.675287
168	H	0.040959	0.044233	0.674533
169	H	0.118824	0.838968	0.67091
170	H	0.186768	0.910152	0.670239
171	H	0.202665	0.036765	0.598263
172	H	0.294613	0.043907	0.591184
173	H	0.219266	0.996177	0.403352
174	H	0.311791	0.002666	0.396324
175	H	0.180318	0.119365	0.671129
176	H	0.10939	0.186987	0.670389
177	H	0.832262	0.112354	0.669302
178	H	0.900265	0.183528	0.669888
179	H	0.02228	0.222625	0.402408
180	H	0.019848	0.314986	0.392572
181	H	0.987193	0.202279	0.596569
182	H	0.984246	0.293848	0.58658
183	H	0.818363	0.988249	0.596814
184	H	0.726786	0.984707	0.586897
185	H	0.705611	0.022361	0.392463
186	H	0.797948	0.025374	0.402227
187	C	0.998813	0.367958	0.647578
188	C	0.36626	0.031059	0.654603
189	C	0.029083	0.654445	0.654528
190	C	0.65266	0.99999	0.647759
191	H	0.987083	0.379426	0.616956
192	H	0.377988	0.056389	0.631172
193	H	0.054478	0.642739	0.631155
194	H	0.641151	0.98755	0.617338
195	C	0.008524	0.455741	0.674731
196	C	0.005335	0.48439	0.633619
197	C	0.004079	0.539454	0.633084
198	C	0.007266	0.567455	0.341406
199	C	0.009994	0.538961	0.382477
200	H	0.003573	0.465287	0.603174
201	C	0.011126	0.484224	0.382429
202	H	0.011505	0.558076	0.413038
203	H	0.013303	0.465101	0.412946
204	N	0.998314	0.566838	0.591586
205	O	0.035135	0.557619	0.564703
206	O	0.956392	0.555574	0.572092
207	N	0.009429	0.403544	0.677147
208	N	0.004678	0.619462	0.344241
209	C	0.564917	0.010327	0.674758
210	C	0.536266	0.00701	0.633656
211	C	0.481198	0.005808	0.633135
212	C	0.453218	0.009155	0.341457
213	C	0.48172	0.012046	0.382518
214	H	0.555379	0.005172	0.603218
215	C	0.536458	0.013136	0.382457
216	H	0.462614	0.013722	0.413072
217	H	0.55559	0.015467	0.412959
218	N	0.453775	0.999935	0.591665
219	O	0.463056	0.036666	0.564689
220	O	0.46493	0.957947	0.572266
221	N	0.617109	0.011277	0.677151
222	N	0.401213	0.006661	0.34432
223	C	0.916101	0.874553	0.004082
224	C	0.877356	0.911549	0.004437
225	C	0.900385	0.960624	0.005912
226	N	0.952258	0.951225	0.007354
227	C	0.96402	0.899827	0.005872
228	C	0.013206	0.874425	0.005265
229	C	0.061716	0.901002	0.005769
230	N	0.070802	0.952784	0.006625
231	C	0.122133	0.964223	0.005943
232	C	0.147663	0.91649	0.004685
233	C	0.110646	0.877741	0.004999
234	C	0.146338	0.013903	0.00551
235	C	0.118576	0.061836	0.00611
236	N	0.066687	0.071187	0.007361
237	C	0.054927	0.122591	0.006274
238	C	0.102841	0.147916	0.005037
239	C	0.141588	0.110941	0.005302
240	C	0.005749	0.147982	0.005534
241	C	0.957243	0.121448	0.005923
242	N	0.948148	0.069678	0.007115
243	C	0.896832	0.058263	0.006096
244	C	0.871341	0.10601	0.0043
245	C	0.908366	0.144755	0.004529
246	C	0.872644	0.008574	0.005514
247	C	0.817172	0.006844	0.000555
248	C	0.783183	0.016826	0.704068
249	C	0.728763	0.015102	0.69821
250	C	0.706321	0.003139	0.988678
251	C	0.740837	0.993446	0.951979
252	C	0.795032	0.995455	0.95767
253	C	0.00485	0.203453	0.000497
254	C	0.014381	0.237414	0.704129
255	C	0.012963	0.291839	0.698233
256	C	0.001745	0.314296	0.988558
257	C	0.992499	0.279796	0.951747
258	C	0.994194	0.225599	0.95748
259	C	0.201927	0.015793	0.001506
260	C	0.225247	0.029032	0.959483
261	C	0.279546	0.033273	0.955441
262	C	0.3128	0.023694	0.992982
263	C	0.289373	0.009318	0.701475
264	C	0.234878	0.005653	0.705714
265	C	0.014254	0.818818	0.001199
266	C	0.027261	0.795382	0.959173
267	C	0.003991	0.785957	0.705448
268	C	0.007404	0.731436	0.701273
269	C	0.021689	0.707907	0.992805
270	C	0.031235	0.741067	0.955186
271	H	0.041817	0.725924	0.924284
272	H	0.035121	0.817899	0.931268
273	H	0.000861	0.709086	0.729523
274	H	0.994793	0.80165	0.736449
275	H	0.909563	0.835501	0.002354
276	H	0.838621	0.903202	0.00321
277	H	0.97798	0.97816	0.008618
278	H	0.040959	0.044233	0.007865
279	H	0.118824	0.838968	0.004246
280	H	0.186768	0.910152	0.003571
281	H	0.202665	0.036765	0.931595
282	H	0.294613	0.043907	0.92452
283	H	0.219266	0.996177	0.736684
284	H	0.311791	0.002666	0.72966
285	H	0.180318	0.119365	0.004464
286	H	0.10939	0.186987	0.003721
287	H	0.832262	0.112354	0.002634
288	H	0.900265	0.183528	0.00322
289	H	0.02228	0.222625	0.73574
290	H	0.019848	0.314986	0.725907
291	H	0.987193	0.202279	0.929901
292	H	0.984246	0.293848	0.919915
293	H	0.818363	0.988249	0.93015
294	H	0.726786	0.984707	0.920232
295	H	0.705611	0.022361	0.725795
296	H	0.797948	0.025374	0.735563
297	C	0.998813	0.367958	0.980914
298	C	0.36626	0.031059	0.987938
299	C	0.029083	0.654445	0.987863
300	C	0.65266	0.99999	0.981094
301	H	0.987083	0.379426	0.950292
302	H	0.377988	0.056389	0.964504
303	H	0.054478	0.642739	0.96449
304	H	0.641151	0.98755	0.950673
305	C	0.008524	0.455741	0.008063
306	C	0.005335	0.48439	0.966951
307	C	0.004079	0.539454	0.966416
308	C	0.007266	0.567455	0.674738
309	C	0.009994	0.538961	0.715809
310	H	0.003573	0.465287	0.936506
311	C	0.011126	0.484224	0.715765
312	H	0.011505	0.558076	0.74637
313	H	0.013303	0.465101	0.746281
314	N	0.998314	0.566838	0.924918
315	O	0.035135	0.557619	0.898035
316	O	0.956392	0.555574	0.905424
317	N	0.004678	0.619462	0.677577
318	C	0.564917	0.010327	0.008094
319	C	0.536266	0.00701	0.966988
320	C	0.481198	0.005808	0.966467
321	C	0.453218	0.009155	0.674789
322	C	0.48172	0.012046	0.71585
323	H	0.555379	0.005172	0.93655
324	C	0.536458	0.013136	0.715789
325	H	0.462614	0.013722	0.746404
326	H	0.55559	0.015467	0.746295
327	N	0.453775	0.999935	0.925
328	O	0.463056	0.036666	0.898021
329	O	0.46493	0.957947	0.905601
330	N	0.401213	0.006661	0.677652
