data_C216H162_2018-02-15_10:41:46
#******************************************
#
# CIF file created by Zeo++
# Zeo++ is an open source package to
# analyze microporous materials
#
#*******************************************

_cell_length_a		29.8135   
_cell_length_b		29.8134   
_cell_length_c		29.5718   
_cell_angle_alpha		90   
_cell_angle_beta		90   
_cell_angle_gamma		120   

_symmetry_space_group_name_H-M		'P1'
_symmetry_Int_Tables_number		1
_symmetry_cell_setting		Monoclinic

loop_
_symmetry_equiv_pos_as_xyz
'+x,+y,+z'

loop_
_atom_site_label
_atom_site_type_symbol
_atom_site_fract_x
_atom_site_fract_y
_atom_site_fract_z
1	C	0.039689	0.519431	0.306378
2	C	0.067733	0.539986	0.013463
3	C	0.039844	0.531492	0.054873
4	H	0.058602	0.524873	0.276192
5	C	0.067796	0.557597	0.097612
6	H	0.067186	0.529013	0.121014
7	H	0.049231	0.57711	0.113605
8	C	0.039689	0.519431	0.63971
9	C	0.067733	0.539986	0.346796
10	C	0.039844	0.531492	0.388207
11	H	0.058602	0.524873	0.609526
12	C	0.067796	0.557597	0.430944
13	H	0.067186	0.529013	0.454348
14	H	0.049231	0.57711	0.446939
15	C	0.039689	0.519431	0.973044
16	C	0.067733	0.539986	0.680131
17	C	0.039844	0.531492	0.721542
18	H	0.058602	0.524873	0.94286
19	C	0.067796	0.557597	0.764278
20	H	0.067186	0.529013	0.787682
21	H	0.049231	0.57711	0.780273
22	C	0.151639	0.547662	0.034606
23	C	0.123072	0.566137	0.010632
24	C	0.150794	0.610999	0.983761
25	H	0.132885	0.515039	0.054115
26	H	0.131461	0.625384	0.96573
27	H	0.108054	0.587365	0.092498
28	C	0.151639	0.547662	0.367938
29	C	0.123072	0.566137	0.343966
30	C	0.150794	0.610999	0.317094
31	H	0.132885	0.515039	0.38745
32	H	0.131461	0.625384	0.299062
33	H	0.108054	0.587365	0.425831
34	C	0.151639	0.547662	0.701272
35	C	0.123072	0.566137	0.6773
36	C	0.150794	0.610999	0.650427
37	H	0.132885	0.515039	0.720784
38	H	0.131461	0.625384	0.632396
39	H	0.108054	0.587365	0.759165
40	C	0.206163	0.574181	0.032986
41	C	0.205309	0.637247	0.981952
42	H	0.225164	0.560289	0.052088
43	H	0.223662	0.669289	0.961733
44	C	0.206163	0.574181	0.366318
45	C	0.205309	0.637247	0.315286
46	H	0.225164	0.560289	0.385421
47	H	0.223662	0.669289	0.295067
48	C	0.206163	0.574181	0.699652
49	C	0.205309	0.637247	0.648621
50	H	0.225164	0.560289	0.718755
51	H	0.223662	0.669289	0.628402
52	C	0.289988	0.647143	0.005153
53	C	0.318054	0.620434	0.002644
54	C	0.372831	0.646624	0.000138
55	C	0.399356	0.701482	0.999313
56	C	0.373608	0.73048	0.002982
57	C	0.318801	0.701989	0.006215
58	C	0.400633	0.618703	0.999864
59	C	0.382457	0.571819	0.975452
60	C	0.408441	0.543286	0.977234
61	C	0.45367	0.560626	0.003611
62	C	0.473001	0.608055	0.027009
63	C	0.446685	0.636244	0.025451
64	C	0.234323	0.619787	0.00685
65	C	0.401941	0.786411	0.004317
66	C	0.381279	0.816288	0.985993
67	C	0.40804	0.870759	0.988948
68	C	0.457184	0.898022	0.009887
69	C	0.479106	0.868761	0.026487
70	C	0.451689	0.814266	0.024529
71	H	0.346249	0.798712	0.969879
72	H	0.390946	0.890431	0.976071
73	H	0.468389	0.795168	0.039238
74	H	0.514927	0.886964	0.041314
75	H	0.460879	0.669177	0.044546
76	H	0.50569	0.62172	0.046413
77	H	0.39353	0.509183	0.959718
78	H	0.349911	0.557849	0.955876
79	H	0.298041	0.580824	0.00286
80	H	0.299174	0.721603	0.010916
81	H	0.438661	0.720786	0.995103
82	C	0.733968	0.370106	0.002992
83	C	0.704996	0.395895	0.999546
84	C	0.650135	0.369363	0.000361
85	C	0.623945	0.314576	0.002765
86	C	0.650665	0.286509	0.005078
87	C	0.705508	0.315292	0.006029
88	C	0.622198	0.39715	0.000104
89	C	0.639701	0.443186	0.025709
90	C	0.611537	0.469531	0.027191
91	C	0.564127	0.4502	0.003753
92	C	0.54682	0.404974	0.97738
93	C	0.575353	0.37899	0.975645
94	C	0.789873	0.398409	0.004297
95	C	0.817709	0.447803	0.025123
96	C	0.872204	0.475166	0.027108
97	C	0.901447	0.453519	0.009858
98	C	0.87419	0.404742	0.988299
99	C	0.819716	0.378024	0.985374
100	C	0.623312	0.230857	0.006705
101	C	0.640518	0.201874	0.981438
102	C	0.61428	0.147358	0.983203
103	C	0.569733	0.119639	0.010431
104	C	0.551527	0.148178	0.034815
105	C	0.578014	0.202702	0.033207
106	H	0.890411	0.510702	0.042444
107	H	0.798579	0.464236	0.040257
108	H	0.893862	0.38787	0.974965
109	H	0.802102	0.34324	0.968855
110	H	0.672345	0.220254	0.960979
111	H	0.628454	0.128025	0.964888
112	H	0.564333	0.221708	0.052565
113	H	0.519158	0.129405	0.054628
114	H	0.561412	0.346459	0.956045
115	H	0.512741	0.39007	0.959826
116	H	0.625169	0.502208	0.046609
117	H	0.672632	0.457392	0.044811
118	H	0.724336	0.435227	0.995485
119	H	0.725143	0.295649	0.010519
120	H	0.584334	0.294548	0.003036
121	C	0.534314	0.475534	0.006888
122	C	0.530285	0.499663	0.300624
123	C	0.503177	0.526767	0.30059
124	C	0.478998	0.530811	0.006813
125	C	0.481389	0.505787	0.047271
126	H	0.502116	0.544475	0.271233
127	H	0.548031	0.498594	0.271295
128	C	0.509242	0.477943	0.047309
129	C	0.453807	0.507007	0.089292
130	H	0.432003	0.527104	0.085621
131	H	0.481783	0.526178	0.116452
132	H	0.42584	0.467675	0.099787
133	C	0.510445	0.450413	0.08937
134	H	0.530553	0.428611	0.085754
135	H	0.471107	0.422445	0.099854
136	H	0.529589	0.478415	0.116514
137	C	0.543665	0.064318	0.013276
138	C	0.522251	0.036235	0.306365
139	C	0.494198	0.98201	0.306363
140	C	0.484394	0.953457	0.013518
141	C	0.504115	0.981084	0.055068
142	H	0.480813	0.963469	0.276019
143	H	0.527034	0.055118	0.276258
144	C	0.536126	0.036499	0.054583
145	C	0.48981	0.953024	0.099464
146	H	0.458531	0.913007	0.097135
147	H	0.476193	0.971831	0.122967
148	H	0.523449	0.953055	0.114032
149	C	0.563121	0.064549	0.097023
150	H	0.592663	0.104843	0.091675
151	H	0.583088	0.046107	0.112386
152	H	0.53501	0.063852	0.121044
153	C	0.956868	0.480635	0.01352
154	C	0.985461	0.491352	0.306301
155	H	0.966954	0.478628	0.275861
156	C	0.98443	0.499419	0.055216
157	C	0.956302	0.484078	0.09956
158	H	0.916298	0.452834	0.096925
159	H	0.956275	0.517352	0.114885
160	H	0.975103	0.469953	0.122557
161	C	0.289988	0.647143	0.338484
162	C	0.318054	0.620434	0.335977
163	C	0.372831	0.646624	0.333469
164	C	0.399356	0.701482	0.332645
165	C	0.373608	0.73048	0.336313
166	C	0.318801	0.701989	0.339546
167	C	0.400633	0.618703	0.333197
168	C	0.382457	0.571819	0.308786
169	C	0.408441	0.543286	0.310568
170	C	0.45367	0.560626	0.336942
171	C	0.473001	0.608055	0.360343
172	C	0.446685	0.636244	0.358784
173	C	0.234323	0.619787	0.340185
174	C	0.401941	0.786411	0.33765
175	C	0.381279	0.816288	0.319324
176	C	0.40804	0.870759	0.322282
177	C	0.457184	0.898022	0.343222
178	C	0.479106	0.868761	0.359822
179	C	0.451689	0.814266	0.357864
180	H	0.346249	0.798712	0.303212
181	H	0.390946	0.890431	0.309403
182	H	0.468389	0.795168	0.372571
183	H	0.514927	0.886964	0.374647
184	H	0.460879	0.669177	0.37788
185	H	0.50569	0.62172	0.379747
186	H	0.39353	0.509183	0.293051
187	H	0.349911	0.557849	0.289209
188	H	0.298041	0.580824	0.336191
189	H	0.299174	0.721603	0.34425
190	H	0.438661	0.720786	0.328434
191	C	0.733968	0.370106	0.336324
192	C	0.704996	0.395895	0.332879
193	C	0.650135	0.369363	0.333693
194	C	0.623945	0.314576	0.336099
195	C	0.650665	0.286509	0.33841
196	C	0.705508	0.315292	0.33936
197	C	0.622198	0.39715	0.333438
198	C	0.639701	0.443186	0.359041
199	C	0.611537	0.469531	0.360526
200	C	0.564127	0.4502	0.337085
201	C	0.54682	0.404974	0.310713
202	C	0.575353	0.37899	0.308977
203	C	0.789873	0.398409	0.33763
204	C	0.817709	0.447803	0.358456
205	C	0.872204	0.475166	0.360441
206	C	0.901447	0.453519	0.343192
207	C	0.87419	0.404742	0.321633
208	C	0.819716	0.378024	0.318707
209	C	0.623312	0.230857	0.340037
210	C	0.640518	0.201874	0.314772
211	C	0.61428	0.147358	0.316534
212	C	0.569733	0.119639	0.343763
213	C	0.551527	0.148178	0.368148
214	C	0.578014	0.202702	0.366541
215	H	0.890411	0.510702	0.375777
216	H	0.798579	0.464236	0.373592
217	H	0.893862	0.38787	0.308296
218	H	0.802102	0.34324	0.302188
219	H	0.672345	0.220254	0.294313
220	H	0.628454	0.128025	0.29822
221	H	0.564333	0.221708	0.385898
222	H	0.519158	0.129405	0.387961
223	H	0.561412	0.346459	0.28938
224	H	0.512741	0.39007	0.293158
225	H	0.625169	0.502208	0.379943
226	H	0.672632	0.457392	0.378144
227	H	0.724336	0.435227	0.328819
228	H	0.725143	0.295649	0.343851
229	H	0.584334	0.294548	0.336369
230	C	0.534314	0.475534	0.340219
231	C	0.530285	0.499663	0.633958
232	C	0.503177	0.526767	0.633924
233	C	0.478998	0.530811	0.340145
234	C	0.481389	0.505787	0.380606
235	H	0.502116	0.544475	0.604565
236	H	0.548031	0.498594	0.60463
237	C	0.509242	0.477943	0.380643
238	C	0.453807	0.507007	0.422625
239	H	0.432003	0.527104	0.418953
240	H	0.481783	0.526178	0.449786
241	H	0.42584	0.467675	0.433122
242	C	0.510445	0.450413	0.422703
243	H	0.530553	0.428611	0.419088
244	H	0.471107	0.422445	0.433186
245	H	0.529589	0.478415	0.449847
246	C	0.543665	0.064318	0.34661
247	C	0.522251	0.036235	0.639697
248	C	0.494198	0.98201	0.639697
249	C	0.484394	0.953457	0.34685
250	C	0.504115	0.981084	0.3884
251	H	0.480813	0.963469	0.609354
252	H	0.527034	0.055118	0.60959
253	C	0.536126	0.036499	0.387917
254	C	0.48981	0.953024	0.432797
255	H	0.458531	0.913007	0.430467
256	H	0.476193	0.971831	0.456299
257	H	0.523449	0.953055	0.447365
258	C	0.563121	0.064549	0.430356
259	H	0.592663	0.104843	0.425009
260	H	0.583088	0.046107	0.445722
261	H	0.53501	0.063852	0.454378
262	C	0.956868	0.480635	0.346854
263	C	0.985461	0.491352	0.639636
264	H	0.966954	0.478628	0.609195
265	C	0.98443	0.499419	0.388549
266	C	0.956302	0.484078	0.432892
267	H	0.916298	0.452834	0.430258
268	H	0.956275	0.517352	0.448217
269	H	0.975103	0.469953	0.45589
270	C	0.289988	0.647143	0.671819
271	C	0.318054	0.620434	0.669309
272	C	0.372831	0.646624	0.666804
273	C	0.399356	0.701482	0.665979
274	C	0.373608	0.73048	0.669648
275	C	0.318801	0.701989	0.67288
276	C	0.400633	0.618703	0.66653
277	C	0.382457	0.571819	0.642121
278	C	0.408441	0.543286	0.6439
279	C	0.45367	0.560626	0.670277
280	C	0.473001	0.608055	0.693677
281	C	0.446685	0.636244	0.692118
282	C	0.234323	0.619787	0.673516
283	C	0.401941	0.786411	0.670983
284	C	0.381279	0.816288	0.652658
285	C	0.40804	0.870759	0.655617
286	C	0.457184	0.898022	0.676553
287	C	0.479106	0.868761	0.693153
288	C	0.451689	0.814266	0.691195
289	H	0.346249	0.798712	0.636545
290	H	0.390946	0.890431	0.642737
291	H	0.468389	0.795168	0.705905
292	H	0.514927	0.886964	0.707981
293	H	0.460879	0.669177	0.711214
294	H	0.50569	0.62172	0.713081
295	H	0.39353	0.509183	0.626383
296	H	0.349911	0.557849	0.622542
297	H	0.298041	0.580824	0.669526
298	H	0.299174	0.721603	0.677584
299	H	0.438661	0.720786	0.661768
300	C	0.733968	0.370106	0.669658
301	C	0.704996	0.395895	0.666212
302	C	0.650135	0.369363	0.667027
303	C	0.623945	0.314576	0.669431
304	C	0.650665	0.286509	0.671744
305	C	0.705508	0.315292	0.672694
306	C	0.622198	0.39715	0.666773
307	C	0.639701	0.443186	0.692375
308	C	0.611537	0.469531	0.693856
309	C	0.564127	0.4502	0.670419
310	C	0.54682	0.404974	0.644045
311	C	0.575353	0.37899	0.642311
312	C	0.789873	0.398409	0.670963
313	C	0.817709	0.447803	0.69179
314	C	0.872204	0.475166	0.693775
315	C	0.901447	0.453519	0.676526
316	C	0.87419	0.404742	0.654968
317	C	0.819716	0.378024	0.65204
318	C	0.623312	0.230857	0.673371
319	C	0.640518	0.201874	0.648107
320	C	0.61428	0.147358	0.649869
321	C	0.569733	0.119639	0.677097
322	C	0.551527	0.148178	0.701482
323	C	0.578014	0.202702	0.699876
324	H	0.890411	0.510702	0.709111
325	H	0.798579	0.464236	0.706923
326	H	0.893862	0.38787	0.641631
327	H	0.802102	0.34324	0.63552
328	H	0.672345	0.220254	0.627648
329	H	0.628454	0.128025	0.631554
330	H	0.564333	0.221708	0.719232
331	H	0.519158	0.129405	0.721295
332	H	0.561412	0.346459	0.622714
333	H	0.512741	0.39007	0.626492
334	H	0.625169	0.502208	0.713277
335	H	0.672632	0.457392	0.711478
336	H	0.724336	0.435227	0.662154
337	H	0.725143	0.295649	0.677185
338	H	0.584334	0.294548	0.669702
339	C	0.534314	0.475534	0.673553
340	C	0.530285	0.499663	0.967292
341	C	0.503177	0.526767	0.967255
342	C	0.478998	0.530811	0.673479
343	C	0.481389	0.505787	0.71394
344	H	0.502116	0.544475	0.9379
345	H	0.548031	0.498594	0.937964
346	C	0.509242	0.477943	0.713977
347	C	0.453807	0.507007	0.755959
348	H	0.432003	0.527104	0.752287
349	H	0.481783	0.526178	0.78312
350	H	0.42584	0.467675	0.766453
351	C	0.510445	0.450413	0.756037
352	H	0.530553	0.428611	0.752422
353	H	0.471107	0.422445	0.76652
354	H	0.529589	0.478415	0.783181
355	C	0.543665	0.064318	0.679945
356	C	0.522251	0.036235	0.973031
357	C	0.494198	0.98201	0.973031
358	C	0.484394	0.953457	0.680185
359	C	0.504115	0.981084	0.721734
360	H	0.480813	0.963469	0.942688
361	H	0.527034	0.055118	0.942925
362	C	0.536126	0.036499	0.721251
363	C	0.48981	0.953024	0.766131
364	H	0.458531	0.913007	0.763801
365	H	0.476193	0.971831	0.789633
366	H	0.523449	0.953055	0.780699
367	C	0.563121	0.064549	0.76369
368	H	0.592663	0.104843	0.758343
369	H	0.583088	0.046107	0.779052
370	H	0.53501	0.063852	0.787713
371	C	0.956868	0.480635	0.680188
372	C	0.985461	0.491352	0.97297
373	H	0.966954	0.478628	0.942529
374	C	0.98443	0.499419	0.721883
375	C	0.956302	0.484078	0.766226
376	H	0.916298	0.452834	0.763592
377	H	0.956275	0.517352	0.781551
378	H	0.975103	0.469953	0.789224
