data_C180H90N36O36_2018-02-15_10:42:28
#******************************************
#
# CIF file created by Zeo++
# Zeo++ is an open source package to
# analyze microporous materials
#
#*******************************************

_cell_length_a		29.411   
_cell_length_b		29.4112   
_cell_length_c		29.935   
_cell_angle_alpha		90   
_cell_angle_beta		90   
_cell_angle_gamma		120   

_symmetry_space_group_name_H-M		'P1'
_symmetry_Int_Tables_number		1
_symmetry_cell_setting		Monoclinic

loop_
_symmetry_equiv_pos_as_xyz
'+x,+y,+z'

loop_
_atom_site_label
_atom_site_type_symbol
_atom_site_fract_x
_atom_site_fract_y
_atom_site_fract_z
1	C	0.024942	0.527663	0.295503
2	O	0.023459	0.572734	0.235611
3	C	0.024942	0.527663	0.628837
4	O	0.023459	0.572734	0.568943
5	C	0.024942	0.527663	0.962169
6	O	0.023459	0.572734	0.902276
7	N	0.031297	0.499803	0.035131
8	N	0.031297	0.499803	0.368465
9	N	0.031297	0.499803	0.701798
10	C	0.362025	0.721889	0.001684
11	N	0.387584	0.694057	0.001637
12	C	0.362015	0.640674	0.001691
13	N	0.308626	0.615116	0.001642
14	C	0.28081	0.640682	0.001691
15	N	0.308639	0.694073	0.001633
16	C	0.390019	0.612717	0.001155
17	C	0.44408	0.637789	0.01217
18	C	0.471727	0.610181	0.011575
19	C	0.446593	0.55679	0.998842
20	C	0.392594	0.531436	0.988122
21	C	0.36479	0.558847	0.989465
22	C	0.389987	0.777851	0.001136
23	C	0.443869	0.806484	0.989485
24	C	0.471286	0.8617	0.988122
25	C	0.445927	0.890348	0.998809
26	C	0.392528	0.862104	0.011509
27	C	0.364909	0.806845	0.012107
28	C	0.224847	0.612674	0.001145
29	C	0.196206	0.637903	0.989455
30	C	0.140989	0.610094	0.988102
31	C	0.112347	0.556087	0.998805
32	C	0.140606	0.530961	0.011551
33	C	0.195862	0.558608	0.012139
34	H	0.510292	0.88082	0.979924
35	H	0.463812	0.78745	0.98122
36	H	0.372912	0.88155	0.019583
37	H	0.326196	0.788067	0.021217
38	H	0.215229	0.676877	0.98119
39	H	0.121858	0.62996	0.979871
40	H	0.214648	0.538695	0.021286
41	H	0.121167	0.4919	0.019631
42	H	0.325823	0.538907	0.981167
43	H	0.372727	0.492442	0.979878
44	H	0.510782	0.629795	0.019679
45	H	0.464	0.676496	0.021306
46	C	0.640626	0.280278	0.001512
47	N	0.615655	0.308674	0.001559
48	C	0.641804	0.362073	0.001517
49	N	0.695172	0.387044	0.001553
50	C	0.722419	0.360894	0.001509
51	N	0.694022	0.307528	0.00155
52	C	0.614403	0.390635	0.001943
53	C	0.560332	0.366052	0.991065
54	C	0.533271	0.394239	0.991473
55	C	0.559016	0.447752	0.003878
56	C	0.613012	0.472615	0.01451
57	C	0.640238	0.444615	0.013335
58	C	0.612067	0.224315	0.001936
59	C	0.558092	0.196166	0.013348
60	C	0.53009	0.140938	0.014506
61	C	0.554958	0.111812	0.003867
62	C	0.608466	0.139585	0.991443
63	C	0.63665	0.194832	0.991038
64	C	0.778384	0.38829	0.001921
65	C	0.806524	0.362452	0.013326
66	C	0.861749	0.389669	0.014478
67	C	0.890888	0.443661	0.00383
68	C	0.863123	0.4694	0.991386
69	C	0.807877	0.442353	0.991015
70	H	0.491051	0.122164	0.022565
71	H	0.538486	0.215564	0.021534
72	H	0.627749	0.119786	0.983439
73	H	0.675405	0.21324	0.982096
74	H	0.78712	0.323454	0.021523
75	H	0.880517	0.369396	0.02254
76	H	0.789471	0.46271	0.982089
77	H	0.882931	0.508492	0.983415
78	H	0.679242	0.464218	0.021518
79	H	0.633288	0.511664	0.022548
80	H	0.494186	0.374959	0.983475
81	H	0.539976	0.327293	0.982132
82	C	0.474862	0.529257	0.331465
83	N	0.502875	0.532025	0.035182
84	C	0.531249	0.507381	0.040287
85	C	0.531243	0.47578	0.00444
86	N	0.50328	0.473055	0.300705
87	C	0.474986	0.497774	0.295574
88	C	0.451046	0.493734	0.254623
89	C	0.555266	0.511487	0.081177
90	O	0.429313	0.450959	0.236122
91	O	0.466755	0.531942	0.229339
92	H	0.486993	0.565176	0.237335
93	O	0.576612	0.554081	0.099996
94	O	0.539762	0.473416	0.106607
95	H	0.519608	0.440143	0.098702
96	C	0.473482	0.946153	0.331438
97	N	0.470713	0.97139	0.035162
98	C	0.495368	0.024404	0.040279
99	C	0.526941	0.056011	0.004427
100	N	0.529662	0.030777	0.300688
101	C	0.50497	0.977762	0.295549
102	C	0.508917	0.957778	0.254625
103	C	0.491217	0.044309	0.081159
104	O	0.551672	0.979262	0.236048
105	O	0.470948	0.935549	0.22911
106	H	0.43767	0.922373	0.237026
107	O	0.448616	0.023035	0.099965
108	O	0.529275	0.066913	0.106597
109	H	0.562558	0.080058	0.098705
110	C	0.056544	0.527812	0.331411
111	C	0.978281	0.471406	0.040217
112	C	0.946686	0.471418	0.004375
113	N	0.971933	0.499383	0.300642
114	C	0.044851	0.551631	0.254592
115	C	0.95837	0.44743	0.08115
116	O	0.067672	0.536273	0.229305
117	H	0.080937	0.516281	0.237327
118	O	0.979277	0.425479	0.099508
119	O	0.936111	0.463283	0.106559
120	H	0.923252	0.483671	0.098665
121	C	0.362025	0.721889	0.335016
122	N	0.387584	0.694057	0.334969
123	C	0.362015	0.640674	0.335023
124	N	0.308626	0.615116	0.334976
125	C	0.28081	0.640682	0.335023
126	N	0.308639	0.694073	0.334966
127	C	0.390019	0.612717	0.334488
128	C	0.44408	0.637789	0.345502
129	C	0.471727	0.610181	0.344908
130	C	0.446593	0.55679	0.332176
131	C	0.392594	0.531436	0.321456
132	C	0.36479	0.558847	0.322798
133	C	0.389987	0.777851	0.334468
134	C	0.443869	0.806484	0.322818
135	C	0.471286	0.8617	0.321458
136	C	0.445927	0.890348	0.332142
137	C	0.392528	0.862104	0.344841
138	C	0.364909	0.806845	0.345439
139	C	0.224847	0.612674	0.334478
140	C	0.196206	0.637903	0.322788
141	C	0.140989	0.610094	0.321437
142	C	0.112347	0.556087	0.332141
143	C	0.140606	0.530961	0.344884
144	C	0.195862	0.558608	0.345472
145	H	0.510292	0.88082	0.313259
146	H	0.463812	0.78745	0.314555
147	H	0.372912	0.88155	0.352915
148	H	0.326196	0.788067	0.354549
149	H	0.215229	0.676877	0.314525
150	H	0.121858	0.62996	0.313207
151	H	0.214648	0.538695	0.354619
152	H	0.121167	0.4919	0.352965
153	H	0.325823	0.538907	0.314502
154	H	0.372727	0.492442	0.313213
155	H	0.510782	0.629795	0.353012
156	H	0.464	0.676496	0.354639
157	C	0.640626	0.280278	0.334846
158	N	0.615655	0.308674	0.334893
159	C	0.641804	0.362073	0.334849
160	N	0.695172	0.387044	0.334886
161	C	0.722419	0.360894	0.334843
162	N	0.694022	0.307528	0.334883
163	C	0.614403	0.390635	0.335277
164	C	0.560332	0.366052	0.324398
165	C	0.533271	0.394239	0.324806
166	C	0.559016	0.447752	0.337211
167	C	0.613012	0.472615	0.347844
168	C	0.640238	0.444615	0.346668
169	C	0.612067	0.224315	0.33527
170	C	0.558092	0.196166	0.346682
171	C	0.53009	0.140938	0.347837
172	C	0.554958	0.111812	0.337201
173	C	0.608466	0.139585	0.324778
174	C	0.63665	0.194832	0.324372
175	C	0.778384	0.38829	0.335253
176	C	0.806524	0.362452	0.346658
177	C	0.861749	0.389669	0.347811
178	C	0.890888	0.443661	0.337164
179	C	0.863123	0.4694	0.324722
180	C	0.807877	0.442353	0.32435
181	H	0.491051	0.122164	0.355898
182	H	0.538486	0.215564	0.354866
183	H	0.627749	0.119786	0.316773
184	H	0.675405	0.21324	0.31543
185	H	0.78712	0.323454	0.354856
186	H	0.880517	0.369396	0.355871
187	H	0.789471	0.46271	0.315424
188	H	0.882931	0.508492	0.31675
189	H	0.679242	0.464218	0.354849
190	H	0.633288	0.511664	0.355881
191	H	0.494186	0.374959	0.316808
192	H	0.539976	0.327293	0.315467
193	C	0.474862	0.529257	0.664798
194	N	0.502875	0.532025	0.368516
195	C	0.531249	0.507381	0.37362
196	C	0.531243	0.47578	0.337772
197	N	0.50328	0.473055	0.634038
198	C	0.474986	0.497774	0.628907
199	C	0.451046	0.493734	0.587955
200	C	0.555266	0.511487	0.414509
201	O	0.429313	0.450959	0.569454
202	O	0.466755	0.531942	0.562673
203	H	0.486993	0.565176	0.570667
204	O	0.576612	0.554081	0.433329
205	O	0.539762	0.473416	0.43994
206	H	0.519608	0.440143	0.432033
207	C	0.473482	0.946153	0.664771
208	N	0.470713	0.97139	0.368496
209	C	0.495368	0.024404	0.373613
210	C	0.526941	0.056011	0.337759
211	N	0.529662	0.030777	0.634021
212	C	0.50497	0.977762	0.628883
213	C	0.508917	0.957778	0.587958
214	C	0.491217	0.044309	0.414492
215	O	0.551672	0.979262	0.569381
216	O	0.470948	0.935549	0.562443
217	H	0.43767	0.922373	0.57036
218	O	0.448616	0.023035	0.433299
219	O	0.529275	0.066913	0.43993
220	H	0.562558	0.080058	0.432037
221	C	0.056544	0.527812	0.664744
222	C	0.978281	0.471406	0.37355
223	C	0.946686	0.471418	0.337709
224	N	0.971933	0.499383	0.633974
225	C	0.044851	0.551631	0.587925
226	C	0.95837	0.44743	0.414482
227	O	0.067672	0.536273	0.56264
228	H	0.080937	0.516281	0.57066
229	O	0.979277	0.425479	0.432842
230	O	0.936111	0.463283	0.439894
231	H	0.923252	0.483671	0.431996
232	C	0.362025	0.721889	0.668349
233	N	0.387584	0.694057	0.668302
234	C	0.362015	0.640674	0.668356
235	N	0.308626	0.615116	0.668309
236	C	0.28081	0.640682	0.668356
237	N	0.308639	0.694073	0.668299
238	C	0.390019	0.612717	0.667821
239	C	0.44408	0.637789	0.678835
240	C	0.471727	0.610181	0.67824
241	C	0.446593	0.55679	0.665509
242	C	0.392594	0.531436	0.654789
243	C	0.36479	0.558847	0.656132
244	C	0.389987	0.777851	0.667801
245	C	0.443869	0.806484	0.656152
246	C	0.471286	0.8617	0.654789
247	C	0.445927	0.890348	0.665476
248	C	0.392528	0.862104	0.678174
249	C	0.364909	0.806845	0.678775
250	C	0.224847	0.612674	0.667811
251	C	0.196206	0.637903	0.656122
252	C	0.140989	0.610094	0.654769
253	C	0.112347	0.556087	0.665473
254	C	0.140606	0.530961	0.678217
255	C	0.195862	0.558608	0.678805
256	H	0.510292	0.88082	0.646592
257	H	0.463812	0.78745	0.647888
258	H	0.372912	0.88155	0.686248
259	H	0.326196	0.788067	0.687885
260	H	0.215229	0.676877	0.647858
261	H	0.121858	0.62996	0.646538
262	H	0.214648	0.538695	0.687951
263	H	0.121167	0.4919	0.686298
264	H	0.325823	0.538907	0.647834
265	H	0.372727	0.492442	0.646545
266	H	0.510782	0.629795	0.686345
267	H	0.464	0.676496	0.687971
268	C	0.640626	0.280278	0.668178
269	N	0.615655	0.308674	0.668225
270	C	0.641804	0.362073	0.668182
271	N	0.695172	0.387044	0.668219
272	C	0.722419	0.360894	0.668175
273	N	0.694022	0.307528	0.668215
274	C	0.614403	0.390635	0.668609
275	C	0.560332	0.366052	0.657729
276	C	0.533271	0.394239	0.65814
277	C	0.559016	0.447752	0.670544
278	C	0.613012	0.472615	0.681177
279	C	0.640238	0.444615	0.680001
280	C	0.612067	0.224315	0.668603
281	C	0.558092	0.196166	0.680014
282	C	0.53009	0.140938	0.68117
283	C	0.554958	0.111812	0.670534
284	C	0.608466	0.139585	0.65811
285	C	0.63665	0.194832	0.657706
286	C	0.778384	0.38829	0.668586
287	C	0.806524	0.362452	0.679991
288	C	0.861749	0.389669	0.681143
289	C	0.890888	0.443661	0.670497
290	C	0.863123	0.4694	0.658053
291	C	0.807877	0.442353	0.657682
292	H	0.491051	0.122164	0.689231
293	H	0.538486	0.215564	0.688199
294	H	0.627749	0.119786	0.650106
295	H	0.675405	0.21324	0.648763
296	H	0.78712	0.323454	0.688189
297	H	0.880517	0.369396	0.689207
298	H	0.789471	0.46271	0.648756
299	H	0.882931	0.508492	0.650083
300	H	0.679242	0.464218	0.688185
301	H	0.633288	0.511664	0.689214
302	H	0.494186	0.374959	0.650139
303	H	0.539976	0.327293	0.6488
304	C	0.474862	0.529257	0.99813
305	N	0.502875	0.532025	0.701848
306	C	0.531249	0.507381	0.706953
307	C	0.531243	0.47578	0.671105
308	N	0.50328	0.473055	0.96737
309	C	0.474986	0.497774	0.962239
310	C	0.451046	0.493734	0.921291
311	C	0.555266	0.511487	0.747845
312	O	0.429313	0.450959	0.902787
313	O	0.466755	0.531942	0.896006
314	H	0.486993	0.565176	0.904
315	O	0.576612	0.554081	0.766662
316	O	0.539762	0.473416	0.773273
317	H	0.519608	0.440143	0.765369
318	C	0.473482	0.946153	0.998104
319	N	0.470713	0.97139	0.701828
320	C	0.495368	0.024404	0.706946
321	C	0.526941	0.056011	0.671091
322	N	0.529662	0.030777	0.967354
323	C	0.50497	0.977762	0.962216
324	C	0.508917	0.957778	0.921291
325	C	0.491217	0.044309	0.747824
326	O	0.551672	0.979262	0.902714
327	O	0.470948	0.935549	0.895775
328	H	0.43767	0.922373	0.903692
329	O	0.448616	0.023035	0.766632
330	O	0.529275	0.066913	0.773263
331	H	0.562558	0.080058	0.765369
332	C	0.056544	0.527812	0.998077
333	C	0.978281	0.471406	0.706882
334	C	0.946686	0.471418	0.671041
335	N	0.971933	0.499383	0.967307
336	C	0.044851	0.551631	0.921257
337	C	0.95837	0.44743	0.747814
338	O	0.067672	0.536273	0.895972
339	H	0.080937	0.516281	0.903993
340	O	0.979277	0.425479	0.766174
341	O	0.936111	0.463283	0.773226
342	H	0.923252	0.483671	0.765329
