data_C192H114N36_2018-02-15_10:47:43
#******************************************
#
# CIF file created by Zeo++
# Zeo++ is an open source package to
# analyze microporous materials
#
#*******************************************

_cell_length_a		25.6387   
_cell_length_b		25.6385   
_cell_length_c		29.1806   
_cell_angle_alpha		90   
_cell_angle_beta		90   
_cell_angle_gamma		90.0372   

_symmetry_space_group_name_H-M		'P1'
_symmetry_Int_Tables_number		1
_symmetry_cell_setting		Monoclinic

loop_
_symmetry_equiv_pos_as_xyz
'+x,+y,+z'

loop_
_atom_site_label
_atom_site_type_symbol
_atom_site_fract_x
_atom_site_fract_y
_atom_site_fract_z
1	C	0.786225	0.018675	0.041514
2	C	0.73154	0.014546	0.03736
3	C	0.015939	0.239903	0.041518
4	C	0.012141	0.294612	0.037376
5	C	0.292527	0.01409	0.038281
6	C	0.237837	0.009949	0.042403
7	C	0.008043	0.788552	0.042193
8	C	0.011994	0.733845	0.038121
9	H	0.04453	0.728037	0.2599
10	H	0.036857	0.820562	0.266712
11	H	0.006394	0.711394	0.066709
12	H	0.999391	0.80443	0.073464
13	H	0.205616	0.038927	0.267012
14	H	0.298122	0.046925	0.260121
15	H	0.222029	0.000974	0.073635
16	H	0.315033	0.008295	0.066799
17	H	0.024375	0.224043	0.072841
18	H	0.017695	0.317078	0.06596
19	H	0.987786	0.207829	0.26592
20	H	0.980447	0.300373	0.25897
21	H	0.818558	0.989184	0.26626
22	H	0.726052	0.98118	0.259319
23	H	0.709015	0.020432	0.065854
24	H	0.801997	0.027774	0.072733
25	C	0.010667	0.541541	0.051701
26	C	0.013432	0.486631	0.051571
27	N	0.009241	0.567037	0.260629
28	C	0.010804	0.541923	0.219765
29	C	0.014764	0.487337	0.219636
30	N	0.015974	0.461949	0.260379
31	H	0.009523	0.562529	0.189836
32	H	0.016306	0.466934	0.18961
33	H	0.014054	0.467293	0.082268
34	H	0.009713	0.56068	0.082485
35	C	0.484726	0.012718	0.051746
36	C	0.539643	0.015364	0.051589
37	N	0.459166	0.010792	0.26069
38	C	0.484269	0.012106	0.219813
39	C	0.538871	0.015925	0.219652
40	N	0.564287	0.01726	0.26038
41	H	0.463644	0.010741	0.189896
42	H	0.559263	0.01728	0.189613
43	H	0.558997	0.016101	0.082278
44	H	0.465595	0.011958	0.08254
45	C	0.741309	0.991649	0.290438
46	C	0.990426	0.285035	0.290179
47	C	0.28283	0.036597	0.291263
48	C	0.034257	0.743385	0.29103
49	C	0.795823	0.99638	0.294407
50	C	0.994813	0.230503	0.294143
51	C	0.228321	0.031825	0.295195
52	C	0.029679	0.797905	0.294917
53	H	0.963995	0.383374	0.301368
54	H	0.381182	0.063191	0.302627
55	H	0.061179	0.645201	0.30264
56	H	0.642867	0.965461	0.301553
57	C	0.013795	0.486592	0.301682
58	C	0.011058	0.54211	0.301814
59	C	0.539651	0.015331	0.301698
60	C	0.484122	0.012734	0.301858
61	C	0.91847	0.87665	0.340701
62	C	0.879459	0.913754	0.340884
63	C	0.902597	0.963141	0.341639
64	N	0.954739	0.953916	0.342923
65	C	0.966555	0.902283	0.341959
66	C	0.016058	0.877009	0.341418
67	C	0.064811	0.903601	0.341987
68	N	0.07374	0.955636	0.342807
69	C	0.125289	0.967111	0.342152
70	C	0.151144	0.919203	0.341035
71	C	0.114008	0.880191	0.341329
72	C	0.149321	0.017121	0.341628
73	C	0.121497	0.065293	0.342066
74	N	0.069349	0.074525	0.34304
75	C	0.057543	0.126153	0.341785
76	C	0.105643	0.151777	0.340759
77	C	0.144644	0.114674	0.34128
78	C	0.008047	0.151425	0.340794
79	C	0.959291	0.124836	0.341193
80	N	0.950352	0.072805	0.342182
81	C	0.89881	0.061326	0.341346
82	C	0.872966	0.109229	0.339859
83	C	0.910099	0.148241	0.340155
84	C	0.874776	0.01131	0.340874
85	C	0.819101	0.009302	0.336813
86	C	0.708169	0.000436	0.328488
87	C	0.006944	0.207118	0.336678
88	C	0.998802	0.318088	0.328366
89	C	0.205003	0.019119	0.337634
90	C	0.315928	0.027971	0.329368
91	C	0.017217	0.821311	0.337369
92	C	0.025758	0.710369	0.329217
93	H	0.911989	0.837342	0.339519
94	H	0.840528	0.905243	0.340028
95	H	0.98055	0.981059	0.343591
96	H	0.043529	0.047385	0.343458
97	H	0.122264	0.841211	0.340609
98	H	0.190483	0.912931	0.339978
99	H	0.183584	0.123177	0.340587
100	H	0.112137	0.191076	0.339369
101	H	0.833635	0.115491	0.338527
102	H	0.901852	0.187217	0.339192
103	C	0.990931	0.371551	0.323649
104	C	0.369378	0.035948	0.324645
105	C	0.033851	0.656937	0.32459
106	C	0.654702	0.992491	0.323758
107	C	0.014297	0.458271	0.343448
108	N	0.017118	0.406194	0.345905
109	C	0.567987	0.015976	0.343451
110	N	0.620063	0.018772	0.345894
111	C	0.786225	0.018675	0.374849
112	C	0.73154	0.014546	0.370692
113	C	0.015939	0.239903	0.374852
114	C	0.012141	0.294612	0.370709
115	C	0.292527	0.01409	0.371614
116	C	0.237837	0.009949	0.375736
117	C	0.008043	0.788552	0.375527
118	C	0.011994	0.733845	0.371452
119	H	0.006394	0.711394	0.400043
120	H	0.315033	0.008295	0.400132
121	H	0.017695	0.317078	0.399293
122	H	0.709015	0.020432	0.399187
123	C	0.010187	0.570162	0.343711
124	C	0.010667	0.541541	0.385033
125	C	0.013432	0.486631	0.384903
126	N	0.007237	0.622216	0.346354
127	C	0.456089	0.012129	0.34377
128	C	0.484726	0.012718	0.385078
129	C	0.539643	0.015364	0.384924
130	N	0.40403	0.009321	0.346439
131	N	0.007237	0.622216	0.013019
132	N	0.40403	0.009321	0.013105
133	C	0.010187	0.570162	0.010377
134	C	0.456089	0.012129	0.010436
135	C	0.91847	0.87665	0.674034
136	C	0.879459	0.913754	0.674215
137	C	0.902597	0.963141	0.674973
138	N	0.954739	0.953916	0.676258
139	C	0.966555	0.902283	0.675291
140	C	0.016058	0.877009	0.67475
141	C	0.064811	0.903601	0.675319
142	N	0.07374	0.955636	0.676141
143	C	0.125289	0.967111	0.675487
144	C	0.151144	0.919203	0.67437
145	C	0.114008	0.880191	0.674661
146	C	0.149321	0.017121	0.674962
147	C	0.121497	0.065293	0.675398
148	N	0.069349	0.074525	0.676374
149	C	0.057543	0.126153	0.675117
150	C	0.105643	0.151777	0.674092
151	C	0.144644	0.114674	0.674613
152	C	0.008047	0.151425	0.674126
153	C	0.959291	0.124836	0.674527
154	N	0.950352	0.072805	0.675514
155	C	0.89881	0.061326	0.674678
156	C	0.872966	0.109229	0.673191
157	C	0.910099	0.148241	0.673489
158	C	0.874776	0.01131	0.674205
159	C	0.819101	0.009302	0.670148
160	C	0.708169	0.000436	0.66182
161	C	0.741309	0.991649	0.623771
162	C	0.795823	0.99638	0.627739
163	C	0.006944	0.207118	0.670011
164	C	0.998802	0.318088	0.6617
165	C	0.990426	0.285035	0.62351
166	C	0.994813	0.230503	0.627475
167	C	0.205003	0.019119	0.670967
168	C	0.228321	0.031825	0.628527
169	C	0.28283	0.036597	0.624597
170	C	0.315928	0.027971	0.662701
171	C	0.017217	0.821311	0.670703
172	C	0.029679	0.797905	0.62825
173	C	0.025758	0.710369	0.66255
174	C	0.034257	0.743385	0.624364
175	H	0.04453	0.728037	0.593233
176	H	0.036857	0.820562	0.600046
177	H	0.999391	0.80443	0.406798
178	H	0.911989	0.837342	0.672851
179	H	0.840528	0.905243	0.673362
180	H	0.98055	0.981059	0.676926
181	H	0.043529	0.047385	0.676792
182	H	0.122264	0.841211	0.673941
183	H	0.190483	0.912931	0.673311
184	H	0.205616	0.038927	0.600344
185	H	0.298122	0.046925	0.593453
186	H	0.222029	0.000974	0.406969
187	H	0.183584	0.123177	0.673921
188	H	0.112137	0.191076	0.672701
189	H	0.833635	0.115491	0.671861
190	H	0.901852	0.187217	0.672526
191	H	0.024375	0.224043	0.406174
192	H	0.987786	0.207829	0.599255
193	H	0.980447	0.300373	0.592305
194	H	0.818558	0.989184	0.599594
195	H	0.726052	0.98118	0.592651
196	H	0.801997	0.027774	0.406065
197	C	0.990931	0.371551	0.656981
198	C	0.369378	0.035948	0.657979
199	C	0.033851	0.656937	0.657924
200	C	0.654702	0.992491	0.657091
201	H	0.963995	0.383374	0.634699
202	H	0.381182	0.063191	0.635961
203	H	0.061179	0.645201	0.635974
204	H	0.642867	0.965461	0.634884
205	C	0.014297	0.458271	0.676779
206	C	0.013795	0.486592	0.635015
207	C	0.011058	0.54211	0.635148
208	N	0.009241	0.567037	0.593963
209	C	0.010804	0.541923	0.553097
210	C	0.014764	0.487337	0.55297
211	N	0.015974	0.461949	0.593713
212	H	0.009523	0.562529	0.52317
213	H	0.016306	0.466934	0.522944
214	H	0.014054	0.467293	0.415602
215	H	0.009713	0.56068	0.415818
216	N	0.017118	0.406194	0.679236
217	C	0.567987	0.015976	0.676786
218	C	0.539651	0.015331	0.635032
219	C	0.484122	0.012734	0.635193
220	N	0.459166	0.010792	0.594025
221	C	0.484269	0.012106	0.553145
222	C	0.538871	0.015925	0.552984
223	N	0.564287	0.01726	0.593713
224	H	0.463644	0.010741	0.523228
225	H	0.559263	0.01728	0.522947
226	H	0.558997	0.016101	0.415612
227	H	0.465595	0.011958	0.415872
228	N	0.620063	0.018772	0.679229
229	C	0.91847	0.87665	0.007368
230	C	0.879459	0.913754	0.00755
231	C	0.902597	0.963141	0.008304
232	N	0.954739	0.953916	0.009589
233	C	0.966555	0.902283	0.008626
234	C	0.016058	0.877009	0.008085
235	C	0.064811	0.903601	0.008654
236	N	0.07374	0.955636	0.009473
237	C	0.125289	0.967111	0.008818
238	C	0.151144	0.919203	0.007701
239	C	0.114008	0.880191	0.007996
240	C	0.149321	0.017121	0.008294
241	C	0.121497	0.065293	0.008732
242	N	0.069349	0.074525	0.009709
243	C	0.057543	0.126153	0.008451
244	C	0.105643	0.151777	0.007427
245	C	0.144644	0.114674	0.007948
246	C	0.008047	0.151425	0.007461
247	C	0.959291	0.124836	0.007858
248	N	0.950352	0.072805	0.008849
249	C	0.89881	0.061326	0.008013
250	C	0.872966	0.109229	0.006525
251	C	0.910099	0.148241	0.00682
252	C	0.874776	0.01131	0.00754
253	C	0.819101	0.009302	0.003479
254	C	0.786225	0.018675	0.70818
255	C	0.73154	0.014546	0.704026
256	C	0.708169	0.000436	0.995155
257	C	0.741309	0.991649	0.957106
258	C	0.795823	0.99638	0.961074
259	C	0.006944	0.207118	0.003345
260	C	0.015939	0.239903	0.708183
261	C	0.012141	0.294612	0.704043
262	C	0.998802	0.318088	0.995031
263	C	0.990426	0.285035	0.956845
264	C	0.994813	0.230503	0.96081
265	C	0.205003	0.019119	0.004301
266	C	0.228321	0.031825	0.961862
267	C	0.28283	0.036597	0.957928
268	C	0.315928	0.027971	0.996036
269	C	0.292527	0.01409	0.704948
270	C	0.237837	0.009949	0.709071
271	C	0.017217	0.821311	0.004034
272	C	0.029679	0.797905	0.961585
273	C	0.008043	0.788552	0.708858
274	C	0.011994	0.733845	0.704787
275	C	0.025758	0.710369	0.995881
276	C	0.034257	0.743385	0.957695
277	H	0.04453	0.728037	0.926565
278	H	0.036857	0.820562	0.933377
279	H	0.006394	0.711394	0.733375
280	H	0.999391	0.80443	0.740129
281	H	0.911989	0.837342	0.006186
282	H	0.840528	0.905243	0.006693
283	H	0.98055	0.981059	0.010261
284	H	0.043529	0.047385	0.010127
285	H	0.122264	0.841211	0.007276
286	H	0.190483	0.912931	0.006645
287	H	0.205616	0.038927	0.933679
288	H	0.298122	0.046925	0.926787
289	H	0.222029	0.000974	0.7403
290	H	0.315033	0.008295	0.733467
291	H	0.183584	0.123177	0.007255
292	H	0.112137	0.191076	0.006035
293	H	0.833635	0.115491	0.005192
294	H	0.901852	0.187217	0.005857
295	H	0.024375	0.224043	0.739509
296	H	0.017695	0.317078	0.732628
297	H	0.987786	0.207829	0.932586
298	H	0.980447	0.300373	0.925636
299	H	0.818558	0.989184	0.932925
300	H	0.726052	0.98118	0.925986
301	H	0.709015	0.020432	0.732521
302	H	0.801997	0.027774	0.739399
303	C	0.990931	0.371551	0.990316
304	C	0.369378	0.035948	0.991313
305	C	0.033851	0.656937	0.991255
306	C	0.654702	0.992491	0.990426
307	H	0.963995	0.383374	0.968034
308	H	0.381182	0.063191	0.969295
309	H	0.061179	0.645201	0.969305
310	H	0.642867	0.965461	0.968219
311	C	0.014297	0.458271	0.010113
312	C	0.013795	0.486592	0.968349
313	C	0.011058	0.54211	0.96848
314	C	0.010187	0.570162	0.677046
315	C	0.010667	0.541541	0.718368
316	C	0.013432	0.486631	0.718238
317	N	0.009241	0.567037	0.927295
318	C	0.010804	0.541923	0.886432
319	C	0.014764	0.487337	0.886302
320	N	0.015974	0.461949	0.927044
321	H	0.009523	0.562529	0.856504
322	H	0.016306	0.466934	0.856278
323	H	0.014054	0.467293	0.748933
324	H	0.009713	0.56068	0.749152
325	N	0.017118	0.406194	0.012571
326	N	0.007237	0.622216	0.679688
327	C	0.567987	0.015976	0.01012
328	C	0.539651	0.015331	0.968363
329	C	0.484122	0.012734	0.968524
330	C	0.456089	0.012129	0.677101
331	C	0.484726	0.012718	0.718413
332	C	0.539643	0.015364	0.718255
333	N	0.459166	0.010792	0.927356
334	C	0.484269	0.012106	0.88648
335	C	0.538871	0.015925	0.886319
336	N	0.564287	0.01726	0.927048
337	H	0.463644	0.010741	0.856563
338	H	0.559263	0.01728	0.856278
339	H	0.558997	0.016101	0.748943
340	H	0.465595	0.011958	0.749207
341	N	0.620063	0.018772	0.01256
342	N	0.40403	0.009321	0.679774
