data_C180H90N36O36_2018-02-15_10:42:27
#******************************************
#
# CIF file created by Zeo++
# Zeo++ is an open source package to
# analyze microporous materials
#
#*******************************************

_cell_length_a		29.4859   
_cell_length_b		29.486   
_cell_length_c		29.8708   
_cell_angle_alpha		90   
_cell_angle_beta		90   
_cell_angle_gamma		120   

_symmetry_space_group_name_H-M		'P1'
_symmetry_Int_Tables_number		1
_symmetry_cell_setting		Monoclinic

loop_
_symmetry_equiv_pos_as_xyz
'+x,+y,+z'

loop_
_atom_site_label
_atom_site_type_symbol
_atom_site_fract_x
_atom_site_fract_y
_atom_site_fract_z
1	C	0.031242	0.515128	0.294592
2	C	0.030855	0.517121	0.042521
3	C	0.031242	0.515128	0.627927
4	C	0.030855	0.517121	0.375855
5	C	0.031242	0.515128	0.961259
6	C	0.030855	0.517121	0.70919
7	C	0.059081	0.53015	0.335324
8	H	0.051362	0.524769	0.264934
9	H	0.050694	0.527561	0.072317
10	C	0.059081	0.53015	0.668655
11	H	0.051362	0.524769	0.598266
12	H	0.050694	0.527561	0.40565
13	C	0.059081	0.53015	0.001991
14	H	0.051362	0.524769	0.931601
15	H	0.050694	0.527561	0.738985
16	C	0.363699	0.722936	0.002111
17	N	0.389086	0.695049	0.001519
18	C	0.363683	0.64177	0.001599
19	N	0.310416	0.616394	0.002078
20	C	0.282543	0.641786	0.002581
21	N	0.310429	0.695057	0.002677
22	C	0.391616	0.613747	0.001391
23	C	0.446649	0.639906	0.995057
24	C	0.474225	0.612345	0.994796
25	C	0.44762	0.557657	0.001458
26	C	0.392928	0.531094	0.00806
27	C	0.36541	0.55871	0.007726
28	C	0.391648	0.778893	0.002064
29	C	0.446634	0.80777	0.995432
30	C	0.474182	0.862905	0.995034
31	C	0.447612	0.890987	0.001887
32	C	0.392978	0.862858	0.008831
33	C	0.365476	0.807723	0.008617
34	C	0.226592	0.613813	0.002659
35	C	0.197748	0.64	0.009025
36	C	0.14261	0.61249	0.009109
37	C	0.114511	0.557848	0.002204
38	C	0.142613	0.531262	0.99558
39	C	0.197744	0.558816	0.996112
40	H	0.513866	0.882395	0.990059
41	H	0.467457	0.788981	0.990354
42	H	0.372739	0.882309	0.013763
43	H	0.325871	0.788902	0.013739
44	H	0.216559	0.679623	0.014049
45	H	0.123135	0.632736	0.013872
46	H	0.216547	0.53799	0.991124
47	H	0.123141	0.491572	0.990628
48	H	0.325774	0.537892	0.012682
49	H	0.372674	0.491384	0.012879
50	H	0.513951	0.632579	0.990073
51	H	0.467504	0.679553	0.99019
52	C	0.642945	0.28143	0.001652
53	N	0.617591	0.309342	0.002194
54	C	0.642996	0.362614	0.002118
55	N	0.696259	0.387969	0.001659
56	C	0.724121	0.362563	0.001194
57	N	0.696217	0.309292	0.001117
58	C	0.615048	0.390622	0.002279
59	C	0.559919	0.364344	0.00799
60	C	0.532297	0.391849	0.008088
61	C	0.558992	0.446635	0.002094
62	C	0.613797	0.473347	0.996229
63	C	0.641325	0.445746	0.99651
64	C	0.614932	0.225472	0.001676
65	C	0.559835	0.196659	0.007632
66	C	0.53219	0.141531	0.007848
67	C	0.558823	0.113397	0.001739
68	C	0.61359	0.141454	0.995593
69	C	0.641141	0.196582	0.995754
70	C	0.780075	0.390539	0.001077
71	C	0.808925	0.364261	0.995355
72	C	0.864056	0.391763	0.995325
73	C	0.892135	0.446537	0.001405
74	C	0.864042	0.473245	0.007274
75	C	0.808917	0.445652	0.00692
76	H	0.492424	0.122069	0.012316
77	H	0.538969	0.215485	0.012228
78	H	0.633837	0.121933	0.991147
79	H	0.680829	0.215353	0.991124
80	H	0.790124	0.324555	0.990853
81	H	0.883557	0.37147	0.991053
82	H	0.79012	0.46656	0.011414
83	H	0.883528	0.513017	0.011688
84	H	0.681033	0.466654	0.992031
85	H	0.634084	0.513127	0.991857
86	H	0.492501	0.371545	0.012346
87	H	0.539005	0.324632	0.012448
88	C	0.475342	0.529942	0.334945
89	C	0.490431	0.516839	0.294392
90	C	0.517971	0.488933	0.294009
91	C	0.531134	0.474424	0.335267
92	C	0.516245	0.487527	0.043024
93	H	0.48087	0.527142	0.264607
94	C	0.488221	0.514944	0.042322
95	H	0.47768	0.524495	0.071993
96	N	0.531791	0.47458	0.253116
97	N	0.53006	0.473484	0.084075
98	O	0.56102	0.514004	0.229759
99	O	0.55924	0.513166	0.107195
100	O	0.491904	0.444618	0.230541
101	O	0.490254	0.443639	0.106774
102	C	0.475298	0.946427	0.335173
103	C	0.490383	0.974431	0.294525
104	C	0.517846	0.029877	0.293949
105	C	0.530964	0.057747	0.335106
106	C	0.516185	0.029945	0.04296
107	H	0.480846	0.954428	0.264809
108	C	0.488203	0.974498	0.042449
109	H	0.477736	0.954549	0.072189
110	N	0.531724	0.057856	0.252957
111	N	0.530181	0.057985	0.08392
112	O	0.561213	0.047749	0.229888
113	O	0.559588	0.047687	0.106923
114	O	0.4919	0.047637	0.230161
115	O	0.490498	0.048014	0.106804
116	C	0.975803	0.487617	0.293858
117	C	0.947779	0.474361	0.334939
118	C	0.975414	0.48909	0.042874
119	N	0.947971	0.473836	0.252794
120	N	0.94722	0.475054	0.083757
121	O	0.958227	0.444481	0.229688
122	O	0.957502	0.445703	0.106859
123	O	0.958194	0.513722	0.230089
124	O	0.957049	0.514728	0.106597
125	C	0.363699	0.722936	0.335444
126	N	0.389086	0.695049	0.334852
127	C	0.363683	0.64177	0.334932
128	N	0.310416	0.616394	0.335411
129	C	0.282543	0.641786	0.335916
130	N	0.310429	0.695057	0.33601
131	C	0.391616	0.613747	0.334724
132	C	0.446649	0.639906	0.328389
133	C	0.474225	0.612345	0.328128
134	C	0.44762	0.557657	0.334791
135	C	0.392928	0.531094	0.341393
136	C	0.36541	0.55871	0.341062
137	C	0.391648	0.778893	0.335397
138	C	0.446634	0.80777	0.328766
139	C	0.474182	0.862905	0.328367
140	C	0.447612	0.890987	0.335217
141	C	0.392978	0.862858	0.342166
142	C	0.365476	0.807723	0.341949
143	C	0.226592	0.613813	0.335993
144	C	0.197748	0.64	0.342357
145	C	0.14261	0.61249	0.342444
146	C	0.114511	0.557848	0.335538
147	C	0.142613	0.531262	0.328911
148	C	0.197744	0.558816	0.329443
149	H	0.513866	0.882395	0.323393
150	H	0.467457	0.788981	0.323687
151	H	0.372739	0.882309	0.347098
152	H	0.325871	0.788902	0.347074
153	H	0.216559	0.679623	0.347382
154	H	0.123135	0.632736	0.347205
155	H	0.216547	0.53799	0.324456
156	H	0.123141	0.491572	0.323962
157	H	0.325774	0.537892	0.346016
158	H	0.372674	0.491384	0.346214
159	H	0.513951	0.632579	0.323406
160	H	0.467504	0.679553	0.323522
161	C	0.642945	0.28143	0.334986
162	N	0.617591	0.309342	0.335528
163	C	0.642996	0.362614	0.335451
164	N	0.696259	0.387969	0.334989
165	C	0.724121	0.362563	0.334526
166	N	0.696217	0.309292	0.334449
167	C	0.615048	0.390622	0.335612
168	C	0.559919	0.364344	0.341323
169	C	0.532297	0.391849	0.341423
170	C	0.558992	0.446635	0.335427
171	C	0.613797	0.473347	0.329561
172	C	0.641325	0.445746	0.329844
173	C	0.614932	0.225472	0.335006
174	C	0.559835	0.196659	0.340965
175	C	0.53219	0.141531	0.341182
176	C	0.558823	0.113397	0.335073
177	C	0.61359	0.141454	0.328925
178	C	0.641141	0.196582	0.329085
179	C	0.780075	0.390539	0.33441
180	C	0.808925	0.364261	0.328688
181	C	0.864056	0.391763	0.328658
182	C	0.892135	0.446537	0.334738
183	C	0.864042	0.473245	0.340606
184	C	0.808917	0.445652	0.340255
185	H	0.492424	0.122069	0.345648
186	H	0.538969	0.215485	0.345561
187	H	0.633837	0.121933	0.324478
188	H	0.680829	0.215353	0.324457
189	H	0.790124	0.324555	0.324183
190	H	0.883557	0.37147	0.324387
191	H	0.79012	0.46656	0.344748
192	H	0.883528	0.513017	0.345022
193	H	0.681033	0.466654	0.325363
194	H	0.634084	0.513127	0.32519
195	H	0.492501	0.371545	0.345682
196	H	0.539005	0.324632	0.345782
197	C	0.475342	0.529942	0.668277
198	C	0.490431	0.516839	0.627726
199	C	0.517971	0.488933	0.627344
200	C	0.531134	0.474424	0.668599
201	C	0.516245	0.487527	0.376357
202	H	0.48087	0.527142	0.597941
203	C	0.488221	0.514944	0.375654
204	H	0.47768	0.524495	0.405325
205	N	0.531791	0.47458	0.586452
206	N	0.53006	0.473484	0.41741
207	O	0.56102	0.514004	0.563094
208	O	0.55924	0.513166	0.44053
209	O	0.491904	0.444618	0.563874
210	O	0.490254	0.443639	0.440108
211	C	0.475298	0.946427	0.668505
212	C	0.490383	0.974431	0.62786
213	C	0.517846	0.029877	0.627281
214	C	0.530964	0.057747	0.668438
215	C	0.516185	0.029945	0.376293
216	H	0.480846	0.954428	0.598142
217	C	0.488203	0.974498	0.375781
218	H	0.477736	0.954549	0.405523
219	N	0.531724	0.057856	0.586291
220	N	0.530181	0.057985	0.417253
221	O	0.561213	0.047749	0.563222
222	O	0.559588	0.047687	0.440259
223	O	0.4919	0.047637	0.563496
224	O	0.490498	0.048014	0.440138
225	C	0.975803	0.487617	0.627194
226	C	0.947779	0.474361	0.66827
227	C	0.975414	0.48909	0.376206
228	N	0.947971	0.473836	0.586127
229	N	0.94722	0.475054	0.417089
230	O	0.958227	0.444481	0.563021
231	O	0.957502	0.445703	0.440192
232	O	0.958194	0.513722	0.563422
233	O	0.957049	0.514728	0.439931
234	C	0.363699	0.722936	0.668776
235	N	0.389086	0.695049	0.668187
236	C	0.363683	0.64177	0.668267
237	N	0.310416	0.616394	0.668746
238	C	0.282543	0.641786	0.669248
239	N	0.310429	0.695057	0.669345
240	C	0.391616	0.613747	0.66806
241	C	0.446649	0.639906	0.661722
242	C	0.474225	0.612345	0.661461
243	C	0.44762	0.557657	0.668126
244	C	0.392928	0.531094	0.674728
245	C	0.36541	0.55871	0.674393
246	C	0.391648	0.778893	0.668729
247	C	0.446634	0.80777	0.662101
248	C	0.474182	0.862905	0.661702
249	C	0.447612	0.890987	0.668552
250	C	0.392978	0.862858	0.675498
251	C	0.365476	0.807723	0.675284
252	C	0.226592	0.613813	0.669328
253	C	0.197748	0.64	0.675692
254	C	0.14261	0.61249	0.675776
255	C	0.114511	0.557848	0.668873
256	C	0.142613	0.531262	0.662244
257	C	0.197744	0.558816	0.662777
258	H	0.513866	0.882395	0.656727
259	H	0.467457	0.788981	0.657022
260	H	0.372739	0.882309	0.680429
261	H	0.325871	0.788902	0.680406
262	H	0.216559	0.679623	0.680717
263	H	0.123135	0.632736	0.68054
264	H	0.216547	0.53799	0.657789
265	H	0.123141	0.491572	0.657297
266	H	0.325774	0.537892	0.679351
267	H	0.372674	0.491384	0.679546
268	H	0.513951	0.632579	0.656741
269	H	0.467504	0.679553	0.656855
270	C	0.642945	0.28143	0.668321
271	N	0.617591	0.309342	0.668863
272	C	0.642996	0.362614	0.668786
273	N	0.696259	0.387969	0.668324
274	C	0.724121	0.362563	0.667859
275	N	0.696217	0.309292	0.667782
276	C	0.615048	0.390622	0.668947
277	C	0.559919	0.364344	0.674658
278	C	0.532297	0.391849	0.674755
279	C	0.558992	0.446635	0.668763
280	C	0.613797	0.473347	0.662894
281	C	0.641325	0.445746	0.663179
282	C	0.614932	0.225472	0.668341
283	C	0.559835	0.196659	0.6743
284	C	0.53219	0.141531	0.674517
285	C	0.558823	0.113397	0.668404
286	C	0.61359	0.141454	0.662258
287	C	0.641141	0.196582	0.662419
288	C	0.780075	0.390539	0.667745
289	C	0.808925	0.364261	0.66202
290	C	0.864056	0.391763	0.66199
291	C	0.892135	0.446537	0.668073
292	C	0.864042	0.473245	0.673942
293	C	0.808917	0.445652	0.673587
294	H	0.492424	0.122069	0.678983
295	H	0.538969	0.215485	0.678896
296	H	0.633837	0.121933	0.657812
297	H	0.680829	0.215353	0.657792
298	H	0.790124	0.324555	0.657517
299	H	0.883557	0.37147	0.657722
300	H	0.79012	0.46656	0.678083
301	H	0.883528	0.513017	0.678357
302	H	0.681033	0.466654	0.658696
303	H	0.634084	0.513127	0.658525
304	H	0.492501	0.371545	0.679013
305	H	0.539005	0.324632	0.679117
306	C	0.475342	0.529942	0.001612
307	C	0.490431	0.516839	0.961061
308	C	0.517971	0.488933	0.960676
309	C	0.531134	0.474424	0.001934
310	C	0.516245	0.487527	0.709692
311	H	0.48087	0.527142	0.931273
312	C	0.488221	0.514944	0.708989
313	H	0.47768	0.524495	0.73866
314	N	0.531791	0.47458	0.919783
315	N	0.53006	0.473484	0.750742
316	O	0.56102	0.514004	0.896426
317	O	0.55924	0.513166	0.773862
318	O	0.491904	0.444618	0.897209
319	O	0.490254	0.443639	0.77344
320	C	0.475298	0.946427	0.00184
321	C	0.490383	0.974431	0.961192
322	C	0.517846	0.029877	0.960616
323	C	0.530964	0.057747	0.001773
324	C	0.516185	0.029945	0.709628
325	H	0.480846	0.954428	0.931477
326	C	0.488203	0.974498	0.709116
327	H	0.477736	0.954549	0.738858
328	N	0.531724	0.057856	0.919626
329	N	0.530181	0.057985	0.750588
330	O	0.561213	0.047749	0.896557
331	O	0.559588	0.047687	0.773591
332	O	0.4919	0.047637	0.896828
333	O	0.490498	0.048014	0.77347
334	C	0.975803	0.487617	0.960525
335	C	0.947779	0.474361	0.001606
336	C	0.975414	0.48909	0.709541
337	N	0.947971	0.473836	0.919462
338	N	0.94722	0.475054	0.750424
339	O	0.958227	0.444481	0.896356
340	O	0.957502	0.445703	0.773527
341	O	0.958194	0.513722	0.896757
342	O	0.957049	0.514728	0.773266
