data_C171H108N36O9_2018-02-15_10:42:31
#******************************************
#
# CIF file created by Zeo++
# Zeo++ is an open source package to
# analyze microporous materials
#
#*******************************************

_cell_length_a		29.3358   
_cell_length_b		29.3358   
_cell_length_c		29.889   
_cell_angle_alpha		90   
_cell_angle_beta		90   
_cell_angle_gamma		120   

_symmetry_space_group_name_H-M		'P1'
_symmetry_Int_Tables_number		1
_symmetry_cell_setting		Monoclinic

loop_
_symmetry_equiv_pos_as_xyz
'+x,+y,+z'

loop_
_atom_site_label
_atom_site_type_symbol
_atom_site_fract_x
_atom_site_fract_y
_atom_site_fract_z
1	C	0.0286	0.514769	0.042863
2	C	0.028438	0.514682	0.295205
3	C	0.027044	0.513985	0.123962
4	C	0.0286	0.514769	0.376196
5	C	0.028438	0.514682	0.628536
6	C	0.027044	0.513985	0.457296
7	C	0.0286	0.514769	0.70953
8	C	0.028438	0.514682	0.96187
9	C	0.027044	0.513985	0.79063
10	O	0.055992	0.52847	0.082656
11	H	0.04717	0.52405	0.264927
12	H	0.055095	0.528014	0.151561
13	O	0.055992	0.52847	0.41599
14	H	0.04717	0.52405	0.598261
15	H	0.055095	0.528014	0.484895
16	O	0.055992	0.52847	0.74932
17	H	0.04717	0.52405	0.931591
18	H	0.055095	0.528014	0.818225
19	H	0.002505	0.532155	0.126742
20	H	0.002526	0.471274	0.126734
21	H	0.002505	0.532155	0.460076
22	H	0.002526	0.471274	0.460066
23	H	0.002505	0.532155	0.793407
24	H	0.002526	0.471274	0.7934
25	C	0.363362	0.722979	0.001524
26	N	0.388851	0.694934	0.00149
27	C	0.363354	0.641394	0.001423
28	N	0.30982	0.615908	0.001397
29	C	0.281776	0.641398	0.001423
30	N	0.309824	0.694934	0.00149
31	C	0.391463	0.613259	0.00139
32	C	0.447297	0.640084	0.001413
33	C	0.47507	0.612448	0.00149
34	C	0.447729	0.556944	0.001463
35	C	0.392227	0.529628	0.00149
36	C	0.364615	0.557425	0.00141
37	C	0.391486	0.779226	0.001621
38	C	0.447321	0.808239	0.001808
39	C	0.475096	0.863652	0.002061
40	C	0.447757	0.891819	0.001989
41	C	0.392254	0.863625	0.001768
42	C	0.364642	0.808216	0.001607
43	C	0.225531	0.613267	0.00139
44	C	0.196523	0.640091	0.001417
45	C	0.141111	0.612456	0.00149
46	C	0.112946	0.556952	0.001463
47	C	0.141131	0.529635	0.001487
48	C	0.196541	0.557432	0.00141
49	H	0.515387	0.883247	0.002288
50	H	0.468695	0.789381	0.001861
51	H	0.371535	0.883199	0.001871
52	H	0.324409	0.789346	0.001527
53	H	0.215379	0.680323	0.001477
54	H	0.121518	0.633156	0.001684
55	H	0.215411	0.536071	0.001473
56	H	0.121552	0.489345	0.001678
57	H	0.324381	0.536063	0.001473
58	H	0.371511	0.489333	0.001681
59	H	0.515363	0.633144	0.001681
60	H	0.468674	0.680315	0.001473
61	C	0.642298	0.280874	0.001898
62	N	0.616805	0.308917	0.001909
63	C	0.642294	0.362453	0.001951
64	N	0.695833	0.387944	0.001967
65	C	0.723877	0.362452	0.001958
66	N	0.695832	0.308918	0.00192
67	C	0.614163	0.390565	0.001936
68	C	0.558325	0.36372	0.001921
69	C	0.53052	0.391332	0.001864
70	C	0.557864	0.446815	0.001801
71	C	0.613349	0.474183	0.001864
72	C	0.640984	0.446402	0.001922
73	C	0.61418	0.22463	0.001821
74	C	0.558344	0.195623	0.001524
75	C	0.530565	0.140208	0.001353
76	C	0.557934	0.112091	0.001607
77	C	0.613414	0.140223	0.00204
78	C	0.641025	0.195638	0.002042
79	C	0.780126	0.390562	0.001942
80	C	0.809119	0.363716	0.001922
81	C	0.864536	0.391327	0.001862
82	C	0.892677	0.446811	0.001798
83	C	0.864558	0.474179	0.001866
84	C	0.809142	0.446398	0.001927
85	H	0.490268	0.120618	0.001189
86	H	0.536972	0.214482	0.0014
87	H	0.63413	0.120646	0.002246
88	H	0.681256	0.214509	0.00228
89	H	0.790243	0.323482	0.001947
90	H	0.884111	0.370605	0.001855
91	H	0.790283	0.467775	0.001952
92	H	0.884152	0.514477	0.001861
93	H	0.68122	0.467779	0.001946
94	H	0.634057	0.514481	0.001858
95	H	0.490223	0.37061	0.001859
96	H	0.536964	0.323487	0.001947
97	C	0.489884	0.514757	0.042864
98	C	0.475546	0.529104	0.002245
99	C	0.489972	0.514682	0.295206
100	N	0.516666	0.487995	0.296019
101	C	0.530215	0.474443	0.001795
102	N	0.516715	0.487932	0.040973
103	O	0.476184	0.528451	0.082657
104	H	0.480612	0.524054	0.264928
105	C	0.490668	0.513985	0.123964
106	H	0.472494	0.471278	0.126743
107	H	0.476639	0.52801	0.151562
108	H	0.533379	0.532178	0.126736
109	C	0.491879	0.976411	0.043017
110	C	0.475535	0.947476	0.002575
111	C	0.487741	0.976143	0.295493
112	N	0.514466	0.029532	0.296122
113	C	0.530288	0.056819	0.001748
114	N	0.519089	0.030031	0.040967
115	O	0.481825	0.949689	0.082953
116	H	0.476832	0.957274	0.265312
117	C	0.479498	0.975888	0.122808
118	H	0.517882	0.009999	0.13031
119	H	0.468274	0.948366	0.150679
120	H	0.450138	0.988223	0.119616
121	C	0.057286	0.529112	0.002244
122	N	0.975058	0.487991	0.296018
123	C	0.947952	0.474439	0.001791
124	N	0.974944	0.48794	0.040971
125	C	0.363362	0.722979	0.334856
126	N	0.388851	0.694934	0.334826
127	C	0.363354	0.641394	0.334759
128	N	0.30982	0.615908	0.334729
129	C	0.281776	0.641398	0.334759
130	N	0.309824	0.694934	0.334823
131	C	0.391463	0.613259	0.334722
132	C	0.447297	0.640084	0.334749
133	C	0.47507	0.612448	0.334826
134	C	0.447729	0.556944	0.334799
135	C	0.392227	0.529628	0.334823
136	C	0.364615	0.557425	0.334742
137	C	0.391486	0.779226	0.334953
138	C	0.447321	0.808239	0.33514
139	C	0.475096	0.863652	0.335395
140	C	0.447757	0.891819	0.335321
141	C	0.392254	0.863625	0.3351
142	C	0.364642	0.808216	0.334943
143	C	0.225531	0.613267	0.334722
144	C	0.196523	0.640091	0.334749
145	C	0.141111	0.612456	0.334826
146	C	0.112946	0.556952	0.334796
147	C	0.141131	0.529635	0.334823
148	C	0.196541	0.557432	0.334742
149	H	0.515387	0.883247	0.335622
150	H	0.468695	0.789381	0.335194
151	H	0.371535	0.883199	0.335204
152	H	0.324409	0.789346	0.334859
153	H	0.215379	0.680323	0.334813
154	H	0.121518	0.633156	0.335017
155	H	0.215411	0.536071	0.334809
156	H	0.121552	0.489345	0.335013
157	H	0.324381	0.536063	0.334809
158	H	0.371511	0.489333	0.335013
159	H	0.515363	0.633144	0.335013
160	H	0.468674	0.680315	0.334806
161	C	0.642298	0.280874	0.335231
162	N	0.616805	0.308917	0.335241
163	C	0.642294	0.362453	0.335284
164	N	0.695833	0.387944	0.335301
165	C	0.723877	0.362452	0.335291
166	N	0.695832	0.308918	0.335254
167	C	0.614163	0.390565	0.335268
168	C	0.558325	0.36372	0.335254
169	C	0.53052	0.391332	0.335197
170	C	0.557864	0.446815	0.335134
171	C	0.613349	0.474183	0.335197
172	C	0.640984	0.446402	0.335254
173	C	0.61418	0.22463	0.335154
174	C	0.558344	0.195623	0.334859
175	C	0.530565	0.140208	0.334685
176	C	0.557934	0.112091	0.33494
177	C	0.613414	0.140223	0.335371
178	C	0.641025	0.195638	0.335375
179	C	0.780126	0.390562	0.335274
180	C	0.809119	0.363716	0.335254
181	C	0.864536	0.391327	0.335194
182	C	0.892677	0.446811	0.335134
183	C	0.864558	0.474179	0.335201
184	C	0.809142	0.446398	0.335261
185	H	0.490268	0.120618	0.334525
186	H	0.536972	0.214482	0.334732
187	H	0.63413	0.120646	0.335579
188	H	0.681256	0.214509	0.335612
189	H	0.790243	0.323482	0.335281
190	H	0.884111	0.370605	0.335187
191	H	0.790283	0.467775	0.335284
192	H	0.884152	0.514477	0.335194
193	H	0.68122	0.467779	0.335278
194	H	0.634057	0.514481	0.335191
195	H	0.490223	0.37061	0.335194
196	H	0.536964	0.323487	0.335281
197	C	0.489884	0.514757	0.376196
198	C	0.475546	0.529104	0.335579
199	C	0.489972	0.514682	0.62854
200	N	0.516666	0.487995	0.629353
201	C	0.530215	0.474443	0.335127
202	N	0.516715	0.487932	0.374305
203	O	0.476184	0.528451	0.41599
204	H	0.480612	0.524054	0.598261
205	C	0.490668	0.513985	0.457296
206	H	0.472494	0.471278	0.460076
207	H	0.476639	0.52801	0.484895
208	H	0.533379	0.532178	0.46007
209	C	0.491879	0.976411	0.37635
210	C	0.475535	0.947476	0.335907
211	C	0.487741	0.976143	0.628824
212	N	0.514466	0.029532	0.629456
213	C	0.530288	0.056819	0.335084
214	N	0.519089	0.030031	0.374299
215	O	0.481825	0.949689	0.416287
216	H	0.476832	0.957274	0.598646
217	C	0.479498	0.975888	0.456142
218	H	0.517882	0.009999	0.463643
219	H	0.468274	0.948366	0.484011
220	H	0.450138	0.988223	0.45295
221	C	0.057286	0.529112	0.335579
222	N	0.975058	0.487991	0.629349
223	C	0.947952	0.474439	0.335127
224	N	0.974944	0.48794	0.374305
225	C	0.363362	0.722979	0.66819
226	N	0.388851	0.694934	0.66816
227	C	0.363354	0.641394	0.668089
228	N	0.30982	0.615908	0.668063
229	C	0.281776	0.641398	0.668089
230	N	0.309824	0.694934	0.668156
231	C	0.391463	0.613259	0.668056
232	C	0.447297	0.640084	0.668079
233	C	0.47507	0.612448	0.668156
234	C	0.447729	0.556944	0.66813
235	C	0.392227	0.529628	0.668156
236	C	0.364615	0.557425	0.668076
237	C	0.391486	0.779226	0.668287
238	C	0.447321	0.808239	0.668474
239	C	0.475096	0.863652	0.668725
240	C	0.447757	0.891819	0.668655
241	C	0.392254	0.863625	0.668434
242	C	0.364642	0.808216	0.668274
243	C	0.225531	0.613267	0.668056
244	C	0.196523	0.640091	0.668083
245	C	0.141111	0.612456	0.66816
246	C	0.112946	0.556952	0.66813
247	C	0.141131	0.529635	0.668156
248	C	0.196541	0.557432	0.668076
249	H	0.515387	0.883247	0.668953
250	H	0.468695	0.789381	0.668528
251	H	0.371535	0.883199	0.668538
252	H	0.324409	0.789346	0.668193
253	H	0.215379	0.680323	0.668143
254	H	0.121518	0.633156	0.66835
255	H	0.215411	0.536071	0.66814
256	H	0.121552	0.489345	0.668347
257	H	0.324381	0.536063	0.66814
258	H	0.371511	0.489333	0.668347
259	H	0.515363	0.633144	0.668347
260	H	0.468674	0.680315	0.66814
261	C	0.642298	0.280874	0.668565
262	N	0.616805	0.308917	0.668575
263	C	0.642294	0.362453	0.668618
264	N	0.695833	0.387944	0.668631
265	C	0.723877	0.362452	0.668625
266	N	0.695832	0.308918	0.668585
267	C	0.614163	0.390565	0.668601
268	C	0.558325	0.36372	0.668588
269	C	0.53052	0.391332	0.668531
270	C	0.557864	0.446815	0.668468
271	C	0.613349	0.474183	0.668531
272	C	0.640984	0.446402	0.668588
273	C	0.61418	0.22463	0.668488
274	C	0.558344	0.195623	0.668193
275	C	0.530565	0.140208	0.668019
276	C	0.557934	0.112091	0.668274
277	C	0.613414	0.140223	0.668705
278	C	0.641025	0.195638	0.668708
279	C	0.780126	0.390562	0.668608
280	C	0.809119	0.363716	0.668588
281	C	0.864536	0.391327	0.668528
282	C	0.892677	0.446811	0.668468
283	C	0.864558	0.474179	0.668531
284	C	0.809142	0.446398	0.668591
285	H	0.490268	0.120618	0.667859
286	H	0.536972	0.214482	0.668066
287	H	0.63413	0.120646	0.668913
288	H	0.681256	0.214509	0.668946
289	H	0.790243	0.323482	0.668611
290	H	0.884111	0.370605	0.668521
291	H	0.790283	0.467775	0.668618
292	H	0.884152	0.514477	0.668528
293	H	0.68122	0.467779	0.668611
294	H	0.634057	0.514481	0.668524
295	H	0.490223	0.37061	0.668524
296	H	0.536964	0.323487	0.668611
297	C	0.489884	0.514757	0.70953
298	C	0.475546	0.529104	0.668913
299	C	0.489972	0.514682	0.96187
300	N	0.516666	0.487995	0.962683
301	C	0.530215	0.474443	0.668461
302	N	0.516715	0.487932	0.707639
303	O	0.476184	0.528451	0.749323
304	H	0.480612	0.524054	0.931595
305	C	0.490668	0.513985	0.79063
306	H	0.472494	0.471278	0.79341
307	H	0.476639	0.52801	0.818229
308	H	0.533379	0.532178	0.793403
309	C	0.491879	0.976411	0.709683
310	C	0.475535	0.947476	0.66924
311	C	0.487741	0.976143	0.962158
312	N	0.514466	0.029532	0.962787
313	C	0.530288	0.056819	0.668417
314	N	0.519089	0.030031	0.707633
315	O	0.481825	0.949689	0.749618
316	H	0.476832	0.957274	0.931976
317	C	0.479498	0.975888	0.789472
318	H	0.517882	0.009999	0.796977
319	H	0.468274	0.948366	0.817345
320	H	0.450138	0.988223	0.78628
321	C	0.057286	0.529112	0.668909
322	N	0.975058	0.487991	0.962683
323	C	0.947952	0.474439	0.668458
324	N	0.974944	0.48794	0.707636
