data_C174H114N36_2018-02-15_10:47:44
#******************************************
#
# CIF file created by Zeo++
# Zeo++ is an open source package to
# analyze microporous materials
#
#*******************************************

_cell_length_a		25.567   
_cell_length_b		25.5668   
_cell_length_c		29.1816   
_cell_angle_alpha		90   
_cell_angle_beta		90   
_cell_angle_gamma		90.0373   

_symmetry_space_group_name_H-M		'P1'
_symmetry_Int_Tables_number		1
_symmetry_cell_setting		Monoclinic

loop_
_symmetry_equiv_pos_as_xyz
'+x,+y,+z'

loop_
_atom_site_label
_atom_site_type_symbol
_atom_site_fract_x
_atom_site_fract_y
_atom_site_fract_z
1	C	0.918296	0.875373	0.338943
2	C	0.879258	0.912684	0.339553
3	C	0.902602	0.962103	0.341234
4	N	0.95487	0.952685	0.342517
5	C	0.966601	0.900899	0.340728
6	C	0.016199	0.875436	0.339886
7	C	0.065155	0.902017	0.340437
8	N	0.074238	0.954183	0.341278
9	C	0.125963	0.965592	0.340593
10	C	0.151784	0.917502	0.339366
11	C	0.114458	0.878463	0.339702
12	C	0.150192	0.015686	0.340225
13	C	0.122372	0.064025	0.341216
14	N	0.070095	0.073367	0.342484
15	C	0.058368	0.125179	0.341787
16	C	0.106664	0.15078	0.340858
17	C	0.145691	0.1135	0.340879
18	C	0.008797	0.150672	0.341155
19	C	0.959861	0.124145	0.341592
20	N	0.950784	0.071986	0.342677
21	C	0.899073	0.0606	0.341773
22	C	0.87331	0.108741	0.340213
23	C	0.910641	0.14778	0.340393
24	C	0.874843	0.010486	0.341088
25	C	0.819059	0.008875	0.336513
26	C	0.785568	0.018305	0.040834
27	C	0.730719	0.018019	0.035304
28	C	0.707532	0.008194	0.325329
29	C	0.741558	0.998627	0.28788
30	C	0.796258	0.999124	0.293268
31	C	0.008004	0.206462	0.336531
32	C	0.017253	0.23992	0.040914
33	C	0.017173	0.294771	0.035383
34	C	0.007662	0.317977	0.325367
35	C	0.998292	0.283976	0.287857
36	C	0.998593	0.229277	0.293241
37	C	0.206069	0.017679	0.336431
38	C	0.229792	0.031253	0.29432
39	C	0.284471	0.03657	0.290861
40	C	0.317312	0.027572	0.329121
41	C	0.293539	0.012833	0.037679
42	C	0.238699	0.00821	0.041339
43	C	0.01727	0.819535	0.33601
44	C	0.030308	0.795669	0.293837
45	C	0.007811	0.787009	0.040995
46	C	0.012046	0.732133	0.037376
47	C	0.026405	0.708227	0.328781
48	C	0.035213	0.740957	0.290406
49	H	0.045994	0.725257	0.259526
50	H	0.037796	0.818147	0.265549
51	H	0.00631	0.709893	0.066107
52	H	0.998857	0.803186	0.072099
53	H	0.911715	0.836002	0.337016
54	H	0.840183	0.904345	0.338305
55	H	0.980792	0.97979	0.343925
56	H	0.044166	0.046228	0.342561
57	H	0.122677	0.839362	0.338982
58	H	0.19122	0.911143	0.338311
59	H	0.207233	0.038747	0.266088
60	H	0.300073	0.047611	0.260007
61	H	0.222621	0.998756	0.072375
62	H	0.315864	0.006853	0.066317
63	H	0.18475	0.121974	0.340167
64	H	0.113288	0.190187	0.33988
65	H	0.833904	0.115145	0.338646
66	H	0.902543	0.186893	0.339155
67	H	0.024444	0.224485	0.072654
68	H	0.024423	0.31762	0.063462
69	H	0.991952	0.206134	0.265197
70	H	0.991277	0.298738	0.255813
71	H	0.819416	0.992502	0.265238
72	H	0.726812	0.991446	0.255855
73	H	0.707859	0.025486	0.063328
74	H	0.800975	0.025886	0.072517
75	C	0.007744	0.372077	0.318115
76	C	0.370879	0.036176	0.325155
77	C	0.034945	0.654654	0.324894
78	C	0.653435	0.008257	0.318058
79	H	0.005105	0.384864	0.285953
80	H	0.382811	0.065418	0.305195
81	H	0.064115	0.642712	0.304875
82	H	0.640647	0.005362	0.285913
83	C	0.010534	0.458599	0.014291
84	N	0.006726	0.484738	0.307106
85	C	0.006065	0.537776	0.302749
86	C	0.009616	0.568249	0.343357
87	N	0.012165	0.542258	0.050641
88	C	0.013179	0.489259	0.054312
89	H	0.015224	0.472355	0.085995
90	C	0.99961	0.560082	0.256359
91	H	0.99343	0.529401	0.230889
92	H	0.034535	0.581884	0.246615
93	H	0.965861	0.586182	0.255665
94	N	0.010532	0.406457	0.017022
95	N	0.006435	0.620242	0.345269
96	C	0.566928	0.01146	0.014249
97	N	0.540727	0.007748	0.307083
98	C	0.487682	0.007177	0.302784
99	C	0.457278	0.010733	0.343425
100	N	0.483325	0.013181	0.050688
101	C	0.536329	0.014092	0.054305
102	H	0.553278	0.016102	0.085972
103	C	0.465274	0.000833	0.256418
104	H	0.495895	0.994688	0.230892
105	H	0.443525	0.035795	0.246765
106	H	0.439109	0.967102	0.255709
107	N	0.619065	0.01137	0.016947
108	N	0.405287	0.007584	0.345392
109	C	0.918296	0.875373	0.672276
110	C	0.879258	0.912684	0.672886
111	C	0.902602	0.962103	0.674569
112	N	0.95487	0.952685	0.67585
113	C	0.966601	0.900899	0.674061
114	C	0.016199	0.875436	0.673218
115	C	0.065155	0.902017	0.67377
116	N	0.074238	0.954183	0.67461
117	C	0.125963	0.965592	0.673928
118	C	0.151784	0.917502	0.672701
119	C	0.114458	0.878463	0.673033
120	C	0.150192	0.015686	0.673558
121	C	0.122372	0.064025	0.674548
122	N	0.070095	0.073367	0.675816
123	C	0.058368	0.125179	0.67512
124	C	0.106664	0.15078	0.674192
125	C	0.145691	0.1135	0.674212
126	C	0.008797	0.150672	0.67449
127	C	0.959861	0.124145	0.674925
128	N	0.950784	0.071986	0.676011
129	C	0.899073	0.0606	0.675107
130	C	0.87331	0.108741	0.673547
131	C	0.910641	0.14778	0.673726
132	C	0.874843	0.010486	0.674421
133	C	0.819059	0.008875	0.669846
134	C	0.785568	0.018305	0.374167
135	C	0.730719	0.018019	0.368636
136	C	0.707532	0.008194	0.658661
137	C	0.741558	0.998627	0.621213
138	C	0.796258	0.999124	0.6266
139	C	0.008004	0.206462	0.669864
140	C	0.017253	0.23992	0.374246
141	C	0.017173	0.294771	0.368715
142	C	0.007662	0.317977	0.658699
143	C	0.998292	0.283976	0.621189
144	C	0.998593	0.229277	0.626576
145	C	0.206069	0.017679	0.669764
146	C	0.229792	0.031253	0.627652
147	C	0.284471	0.03657	0.624194
148	C	0.317312	0.027572	0.662455
149	C	0.293539	0.012833	0.371011
150	C	0.238699	0.00821	0.374671
151	C	0.01727	0.819535	0.669343
152	C	0.030308	0.795669	0.627172
153	C	0.007811	0.787009	0.374328
154	C	0.012046	0.732133	0.370709
155	C	0.026405	0.708227	0.662116
156	C	0.035213	0.740957	0.623739
157	H	0.045994	0.725257	0.59286
158	H	0.037796	0.818147	0.598884
159	H	0.00631	0.709893	0.39944
160	H	0.998857	0.803186	0.405433
161	H	0.911715	0.836002	0.67035
162	H	0.840183	0.904345	0.671639
163	H	0.980792	0.97979	0.677259
164	H	0.044166	0.046228	0.675895
165	H	0.122677	0.839362	0.672314
166	H	0.19122	0.911143	0.671646
167	H	0.207233	0.038747	0.599422
168	H	0.300073	0.047611	0.593339
169	H	0.222621	0.998756	0.405708
170	H	0.315864	0.006853	0.399652
171	H	0.18475	0.121974	0.673499
172	H	0.113288	0.190187	0.673215
173	H	0.833904	0.115145	0.671981
174	H	0.902543	0.186893	0.672489
175	H	0.024444	0.224485	0.405989
176	H	0.024423	0.31762	0.396794
177	H	0.991952	0.206134	0.598531
178	H	0.991277	0.298738	0.589145
179	H	0.819416	0.992502	0.598572
180	H	0.726812	0.991446	0.589189
181	H	0.707859	0.025486	0.396661
182	H	0.800975	0.025886	0.405851
183	C	0.007744	0.372077	0.651448
184	C	0.370879	0.036176	0.65849
185	C	0.034945	0.654654	0.658226
186	C	0.653435	0.008257	0.651393
187	H	0.005105	0.384864	0.619287
188	H	0.382811	0.065418	0.638529
189	H	0.064115	0.642712	0.638207
190	H	0.640647	0.005362	0.619246
191	C	0.010534	0.458599	0.347623
192	N	0.006726	0.484738	0.640441
193	C	0.006065	0.537776	0.636082
194	C	0.009616	0.568249	0.67669
195	N	0.012165	0.542258	0.383975
196	C	0.013179	0.489259	0.387645
197	H	0.015224	0.472355	0.419329
198	C	0.99961	0.560082	0.589693
199	H	0.99343	0.529401	0.564222
200	H	0.034535	0.581884	0.579947
201	H	0.965861	0.586182	0.588998
202	N	0.010532	0.406457	0.350354
203	N	0.006435	0.620242	0.678602
204	C	0.566928	0.01146	0.347582
205	N	0.540727	0.007748	0.640417
206	C	0.487682	0.007177	0.636116
207	C	0.457278	0.010733	0.676758
208	N	0.483325	0.013181	0.384023
209	C	0.536329	0.014092	0.387638
210	H	0.553278	0.016102	0.419305
211	C	0.465274	0.000833	0.589751
212	H	0.495895	0.994688	0.564225
213	H	0.443525	0.035795	0.580098
214	H	0.439109	0.967102	0.589042
215	N	0.619065	0.01137	0.350279
216	N	0.405287	0.007584	0.678725
217	C	0.918296	0.875373	0.005609
218	C	0.879258	0.912684	0.006219
219	C	0.902602	0.962103	0.007902
220	N	0.95487	0.952685	0.009183
221	C	0.966601	0.900899	0.007395
222	C	0.016199	0.875436	0.006552
223	C	0.065155	0.902017	0.007103
224	N	0.074238	0.954183	0.007946
225	C	0.125963	0.965592	0.007261
226	C	0.151784	0.917502	0.006034
227	C	0.114458	0.878463	0.00637
228	C	0.150192	0.015686	0.006891
229	C	0.122372	0.064025	0.007881
230	N	0.070095	0.073367	0.009153
231	C	0.058368	0.125179	0.008453
232	C	0.106664	0.15078	0.007525
233	C	0.145691	0.1135	0.007545
234	C	0.008797	0.150672	0.007823
235	C	0.959861	0.124145	0.008258
236	N	0.950784	0.071986	0.009344
237	C	0.899073	0.0606	0.00844
238	C	0.87331	0.108741	0.006881
239	C	0.910641	0.14778	0.007059
240	C	0.874843	0.010486	0.007754
241	C	0.819059	0.008875	0.00318
242	C	0.785568	0.018305	0.7075
243	C	0.730719	0.018019	0.701969
244	C	0.707532	0.008194	0.991998
245	C	0.741558	0.998627	0.954546
246	C	0.796258	0.999124	0.959933
247	C	0.008004	0.206462	0.003197
248	C	0.017253	0.23992	0.707583
249	C	0.017173	0.294771	0.702052
250	C	0.007662	0.317977	0.992036
251	C	0.998292	0.283976	0.954522
252	C	0.998593	0.229277	0.959909
253	C	0.206069	0.017679	0.003097
254	C	0.229792	0.031253	0.960985
255	C	0.284471	0.03657	0.957528
256	C	0.317312	0.027572	0.995788
257	C	0.293539	0.012833	0.704348
258	C	0.238699	0.00821	0.708004
259	C	0.01727	0.819535	0.002676
260	C	0.030308	0.795669	0.960505
261	C	0.007811	0.787009	0.707661
262	C	0.012046	0.732133	0.704043
263	C	0.026405	0.708227	0.995449
264	C	0.035213	0.740957	0.957072
265	H	0.045994	0.725257	0.926193
266	H	0.037796	0.818147	0.932217
267	H	0.00631	0.709893	0.732773
268	H	0.998857	0.803186	0.738767
269	H	0.911715	0.836002	0.003683
270	H	0.840183	0.904345	0.004972
271	H	0.980792	0.97979	0.010592
272	H	0.044166	0.046228	0.009228
273	H	0.122677	0.839362	0.00565
274	H	0.19122	0.911143	0.004979
275	H	0.207233	0.038747	0.932755
276	H	0.300073	0.047611	0.926673
277	H	0.222621	0.998756	0.739041
278	H	0.315864	0.006853	0.732986
279	H	0.18475	0.121974	0.006833
280	H	0.113288	0.190187	0.006548
281	H	0.833904	0.115145	0.005315
282	H	0.902543	0.186893	0.005822
283	H	0.024444	0.224485	0.739322
284	H	0.024423	0.31762	0.730128
285	H	0.991952	0.206134	0.931864
286	H	0.991277	0.298738	0.922478
287	H	0.819416	0.992502	0.931905
288	H	0.726812	0.991446	0.922523
289	H	0.707859	0.025486	0.729994
290	H	0.800975	0.025886	0.739185
291	C	0.007744	0.372077	0.984781
292	C	0.370879	0.036176	0.991823
293	C	0.034945	0.654654	0.991563
294	C	0.653435	0.008257	0.984726
295	H	0.005105	0.384864	0.95262
296	H	0.382811	0.065418	0.971862
297	H	0.064115	0.642712	0.971543
298	H	0.640647	0.005362	0.952579
299	C	0.010534	0.458599	0.680956
300	N	0.006726	0.484738	0.973774
301	C	0.006065	0.537776	0.969415
302	C	0.009616	0.568249	0.010023
303	N	0.012165	0.542258	0.717308
304	C	0.013179	0.489259	0.720978
305	H	0.015224	0.472355	0.752662
306	C	0.99961	0.560082	0.923026
307	H	0.99343	0.529401	0.897555
308	H	0.034535	0.581884	0.913281
309	H	0.965861	0.586182	0.922331
310	N	0.010532	0.406457	0.683687
311	N	0.006435	0.620242	0.011935
312	C	0.566928	0.01146	0.680915
313	N	0.540727	0.007748	0.97375
314	C	0.487682	0.007177	0.969453
315	C	0.457278	0.010733	0.010091
316	N	0.483325	0.013181	0.717356
317	C	0.536329	0.014092	0.720971
318	H	0.553278	0.016102	0.752638
319	C	0.465274	0.000833	0.923085
320	H	0.495895	0.994688	0.897558
321	H	0.443525	0.035795	0.913431
322	H	0.439109	0.967102	0.922375
323	N	0.619065	0.01137	0.683612
324	N	0.405287	0.007584	0.012058
