data_C180H90N36O36_2018-02-15_10:42:35
#******************************************
#
# CIF file created by Zeo++
# Zeo++ is an open source package to
# analyze microporous materials
#
#*******************************************

_cell_length_a		29.4695   
_cell_length_b		29.4695   
_cell_length_c		29.8632   
_cell_angle_alpha		90   
_cell_angle_beta		90   
_cell_angle_gamma		120   

_symmetry_space_group_name_H-M		'P1'
_symmetry_Int_Tables_number		1
_symmetry_cell_setting		Monoclinic

loop_
_symmetry_equiv_pos_as_xyz
'+x,+y,+z'

loop_
_atom_site_label
_atom_site_type_symbol
_atom_site_fract_x
_atom_site_fract_y
_atom_site_fract_z
1	C	0.031222	0.516369	0.04303
2	C	0.030652	0.515824	0.294518
3	C	0.031222	0.516369	0.376363
4	C	0.030652	0.515824	0.627851
5	C	0.031222	0.516369	0.709694
6	C	0.030652	0.515824	0.961184
7	C	0.058838	0.530141	0.335403
8	H	0.051501	0.526725	0.072634
9	N	0.058437	0.529487	0.253477
10	O	0.048141	0.489469	0.230928
11	O	0.047796	0.558576	0.230364
12	C	0.058838	0.530141	0.668734
13	H	0.051501	0.526725	0.405968
14	N	0.058437	0.529487	0.58681
15	O	0.048141	0.489469	0.564261
16	O	0.047796	0.558576	0.563698
17	C	0.058838	0.530141	0.002068
18	H	0.051501	0.526725	0.739299
19	N	0.058437	0.529487	0.920144
20	O	0.048141	0.489469	0.897594
21	O	0.047796	0.558576	0.897028
22	C	0.363697	0.723066	0.003431
23	N	0.388982	0.695074	0.003583
24	C	0.363541	0.641793	0.003606
25	N	0.31026	0.616489	0.003489
26	C	0.282425	0.64195	0.003362
27	N	0.3104	0.695243	0.003296
28	C	0.391517	0.613777	0.003536
29	C	0.447055	0.640457	0.005325
30	C	0.474725	0.612982	0.005085
31	C	0.447594	0.557789	0.002948
32	C	0.392382	0.530631	0.001086
33	C	0.364857	0.558255	0.001478
34	C	0.391866	0.779059	0.003284
35	C	0.447431	0.80776	0.004586
36	C	0.47527	0.862906	0.004355
37	C	0.448277	0.891126	0.002743
38	C	0.393043	0.863236	0.001361
39	C	0.365359	0.808089	0.001709
40	C	0.226428	0.613989	0.003228
41	C	0.197583	0.640669	0.001187
42	C	0.142431	0.613174	0.000879
43	C	0.114355	0.557961	0.002805
44	C	0.142396	0.530807	0.004899
45	C	0.19754	0.558451	0.00506
46	H	0.515369	0.882286	0.005215
47	H	0.468563	0.788855	0.005733
48	H	0.372588	0.88287	6.2e-05
49	H	0.325329	0.789427	0.000624
50	H	0.216388	0.680686	0.999697
51	H	0.122931	0.633741	0.999211
52	H	0.216306	0.537202	0.006582
53	H	0.12288	0.490719	0.006146
54	H	0.324839	0.53703	0.999998
55	H	0.371831	0.490563	0.999395
56	H	0.514816	0.633576	0.006295
57	H	0.468289	0.680471	0.006843
58	C	0.642819	0.281467	0.001857
59	N	0.61745	0.309392	0.001833
60	C	0.64288	0.362696	0.00182
61	N	0.696169	0.388043	0.001853
62	C	0.72404	0.362632	0.001873
63	N	0.696101	0.309359	0.001893
64	C	0.614971	0.390789	0.001924
65	C	0.559444	0.364214	0.000119
66	C	0.53187	0.391791	0.00033
67	C	0.559093	0.446991	0.002452
68	C	0.614301	0.474051	0.004342
69	C	0.64172	0.446321	0.003978
70	C	0.614924	0.225473	0.001994
71	C	0.559379	0.196489	0.003441
72	C	0.531867	0.141336	0.003785
73	C	0.559178	0.113405	0.002539
74	C	0.614396	0.141586	0.001053
75	C	0.641742	0.196727	0.000815
76	C	0.780027	0.390545	0.002001
77	C	0.808816	0.363798	0.00391
78	C	0.863962	0.391232	0.004258
79	C	0.892082	0.446447	0.002519
80	C	0.8641	0.473667	0.000551
81	C	0.808956	0.446082	0.000346
82	H	0.491778	0.121729	0.004994
83	H	0.538049	0.215193	0.004432
84	H	0.635089	0.122176	0.000283
85	H	0.681783	0.215592	0.99976
86	H	0.789976	0.323771	0.005274
87	H	0.883422	0.370619	0.005823
88	H	0.790222	0.467366	0.998933
89	H	0.883659	0.513763	0.999436
90	H	0.68174	0.467488	0.005466
91	H	0.634924	0.514115	0.00603
92	H	0.49178	0.371272	0.999104
93	H	0.538151	0.3242	0.998595
94	C	0.531353	0.474772	0.003243
95	C	0.517174	0.488733	0.044151
96	C	0.489327	0.516337	0.043081
97	C	0.475438	0.530118	0.33548
98	C	0.489669	0.516212	0.294573
99	H	0.479067	0.526317	0.072704
100	C	0.517499	0.488592	0.295643
101	H	0.527763	0.478616	0.266019
102	N	0.476007	0.530396	0.25356
103	N	0.530908	0.474635	0.085169
104	O	0.516029	0.560148	0.23103
105	O	0.490926	0.444942	0.107769
106	O	0.560054	0.514378	0.108249
107	O	0.446908	0.490708	0.230406
108	C	0.531604	0.05789	0.003264
109	C	0.517713	0.029682	0.044136
110	C	0.490096	0.974237	0.042991
111	C	0.476209	0.946644	0.335353
112	C	0.490328	0.974852	0.294481
113	H	0.480033	0.95394	0.072587
114	C	0.51794	0.030297	0.295626
115	H	0.528067	0.050593	0.266029
116	N	0.476766	0.947087	0.25343
117	N	0.531874	0.057447	0.085187
118	O	0.516845	0.957608	0.230875
119	O	0.561623	0.047131	0.107674
120	O	0.49218	0.046808	0.108354
121	O	0.44752	0.957521	0.230329
122	C	0.947595	0.4742	0.003266
123	C	0.975774	0.488529	0.044151
124	C	0.975207	0.487957	0.29564
125	H	0.954925	0.477628	0.266036
126	N	0.947976	0.474956	0.085186
127	O	0.958245	0.515032	0.107636
128	O	0.958609	0.445933	0.108403
129	C	0.363697	0.723066	0.336763
130	N	0.388982	0.695074	0.336917
131	C	0.363541	0.641793	0.336937
132	N	0.31026	0.616489	0.336823
133	C	0.282425	0.64195	0.336696
134	N	0.3104	0.695243	0.336629
135	C	0.391517	0.613777	0.33687
136	C	0.447055	0.640457	0.338658
137	C	0.474725	0.612982	0.338417
138	C	0.447594	0.557789	0.336281
139	C	0.392382	0.530631	0.334421
140	C	0.364857	0.558255	0.334813
141	C	0.391866	0.779059	0.336615
142	C	0.447431	0.80776	0.337918
143	C	0.47527	0.862906	0.337687
144	C	0.448277	0.891126	0.336076
145	C	0.393043	0.863236	0.334697
146	C	0.365359	0.808089	0.335042
147	C	0.226428	0.613989	0.336562
148	C	0.197583	0.640669	0.334521
149	C	0.142431	0.613174	0.334213
150	C	0.114355	0.557961	0.336137
151	C	0.142396	0.530807	0.338233
152	C	0.19754	0.558451	0.338394
153	H	0.515369	0.882286	0.338548
154	H	0.468563	0.788855	0.339067
155	H	0.372588	0.88287	0.333397
156	H	0.325329	0.789427	0.33396
157	H	0.216388	0.680686	0.333032
158	H	0.122931	0.633741	0.332546
159	H	0.216306	0.537202	0.339914
160	H	0.12288	0.490719	0.339479
161	H	0.324839	0.53703	0.333332
162	H	0.371831	0.490563	0.33273
163	H	0.514816	0.633576	0.339629
164	H	0.468289	0.680471	0.340175
165	C	0.642819	0.281467	0.335192
166	N	0.61745	0.309392	0.335169
167	C	0.64288	0.362696	0.335152
168	N	0.696169	0.388043	0.335186
169	C	0.72404	0.362632	0.335206
170	N	0.696101	0.309359	0.335229
171	C	0.614971	0.390789	0.335259
172	C	0.559444	0.364214	0.333454
173	C	0.53187	0.391791	0.333664
174	C	0.559093	0.446991	0.335785
175	C	0.614301	0.474051	0.337674
176	C	0.64172	0.446321	0.337312
177	C	0.614924	0.225473	0.335326
178	C	0.559379	0.196489	0.336773
179	C	0.531867	0.141336	0.337118
180	C	0.559178	0.113405	0.335872
181	C	0.614396	0.141586	0.334388
182	C	0.641742	0.196727	0.334149
183	C	0.780027	0.390545	0.335336
184	C	0.808816	0.363798	0.337242
185	C	0.863962	0.391232	0.33759
186	C	0.892082	0.446447	0.335852
187	C	0.8641	0.473667	0.333885
188	C	0.808956	0.446082	0.333679
189	H	0.491778	0.121729	0.338327
190	H	0.538049	0.215193	0.337764
191	H	0.635089	0.122176	0.333616
192	H	0.681783	0.215592	0.333093
193	H	0.789976	0.323771	0.338608
194	H	0.883422	0.370619	0.339157
195	H	0.790222	0.467366	0.332267
196	H	0.883659	0.513763	0.332769
197	H	0.68174	0.467488	0.338799
198	H	0.634924	0.514115	0.339361
199	H	0.49178	0.371272	0.332438
200	H	0.538151	0.3242	0.33193
201	C	0.531353	0.474772	0.336575
202	C	0.517174	0.488733	0.377485
203	C	0.489327	0.516337	0.376414
204	C	0.475438	0.530118	0.668814
205	C	0.489669	0.516212	0.627904
206	H	0.479067	0.526317	0.406039
207	C	0.517499	0.488592	0.628976
208	H	0.527763	0.478616	0.599351
209	N	0.476007	0.530396	0.586894
210	N	0.530908	0.474635	0.418502
211	O	0.516029	0.560148	0.564364
212	O	0.490926	0.444942	0.441102
213	O	0.560054	0.514378	0.441581
214	O	0.446908	0.490708	0.563738
215	C	0.531604	0.05789	0.336595
216	C	0.517713	0.029682	0.377468
217	C	0.490096	0.974237	0.376323
218	C	0.476209	0.946644	0.668687
219	C	0.490328	0.974852	0.627814
220	H	0.480033	0.95394	0.405922
221	C	0.51794	0.030297	0.628959
222	H	0.528067	0.050593	0.599361
223	N	0.476766	0.947087	0.586763
224	N	0.531874	0.057447	0.418519
225	O	0.516845	0.957608	0.564207
226	O	0.561623	0.047131	0.441008
227	O	0.49218	0.046808	0.441685
228	O	0.44752	0.957521	0.563661
229	C	0.947595	0.4742	0.336599
230	C	0.975774	0.488529	0.377485
231	C	0.975207	0.487957	0.628972
232	H	0.954925	0.477628	0.599367
233	N	0.947976	0.474956	0.418519
234	O	0.958245	0.515032	0.440968
235	O	0.958609	0.445933	0.441735
236	C	0.363697	0.723066	0.670097
237	N	0.388982	0.695074	0.670251
238	C	0.363541	0.641793	0.670271
239	N	0.31026	0.616489	0.670154
240	C	0.282425	0.64195	0.670026
241	N	0.3104	0.695243	0.669963
242	C	0.391517	0.613777	0.670204
243	C	0.447055	0.640457	0.671992
244	C	0.474725	0.612982	0.671751
245	C	0.447594	0.557789	0.669614
246	C	0.392382	0.530631	0.667753
247	C	0.364857	0.558255	0.668148
248	C	0.391866	0.779059	0.669949
249	C	0.447431	0.80776	0.671252
250	C	0.47527	0.862906	0.671021
251	C	0.448277	0.891126	0.66941
252	C	0.393043	0.863236	0.668031
253	C	0.365359	0.808089	0.668375
254	C	0.226428	0.613989	0.669892
255	C	0.197583	0.640669	0.667853
256	C	0.142431	0.613174	0.667545
257	C	0.114355	0.557961	0.66947
258	C	0.142396	0.530807	0.671563
259	C	0.19754	0.558451	0.671724
260	H	0.515369	0.882286	0.671881
261	H	0.468563	0.788855	0.672397
262	H	0.372588	0.88287	0.666731
263	H	0.325329	0.789427	0.667294
264	H	0.216388	0.680686	0.666366
265	H	0.122931	0.633741	0.665877
266	H	0.216306	0.537202	0.673248
267	H	0.12288	0.490719	0.672812
268	H	0.324839	0.53703	0.666664
269	H	0.371831	0.490563	0.666062
270	H	0.514816	0.633576	0.67296
271	H	0.468289	0.680471	0.673509
272	C	0.642819	0.281467	0.668526
273	N	0.61745	0.309392	0.668499
274	C	0.64288	0.362696	0.668486
275	N	0.696169	0.388043	0.668519
276	C	0.72404	0.362632	0.668539
277	N	0.696101	0.309359	0.66856
278	C	0.614971	0.390789	0.66859
279	C	0.559444	0.364214	0.666788
280	C	0.53187	0.391791	0.666996
281	C	0.559093	0.446991	0.669119
282	C	0.614301	0.474051	0.671007
283	C	0.64172	0.446321	0.670642
284	C	0.614924	0.225473	0.66866
285	C	0.559379	0.196489	0.670107
286	C	0.531867	0.141336	0.670452
287	C	0.559178	0.113405	0.669206
288	C	0.614396	0.141586	0.667722
289	C	0.641742	0.196727	0.667481
290	C	0.780027	0.390545	0.66867
291	C	0.808816	0.363798	0.670575
292	C	0.863962	0.391232	0.670924
293	C	0.892082	0.446447	0.669186
294	C	0.8641	0.473667	0.667217
295	C	0.808956	0.446082	0.667013
296	H	0.491778	0.121729	0.67166
297	H	0.538049	0.215193	0.671098
298	H	0.635089	0.122176	0.666949
299	H	0.681783	0.215592	0.666427
300	H	0.789976	0.323771	0.671938
301	H	0.883422	0.370619	0.672488
302	H	0.790222	0.467366	0.665599
303	H	0.883659	0.513763	0.666102
304	H	0.68174	0.467488	0.672133
305	H	0.634924	0.514115	0.672695
306	H	0.49178	0.371272	0.66577
307	H	0.538151	0.3242	0.665261
308	C	0.531353	0.474772	0.669909
309	C	0.517174	0.488733	0.710816
310	C	0.489327	0.516337	0.709747
311	C	0.475438	0.530118	0.002148
312	C	0.489669	0.516212	0.961238
313	H	0.479067	0.526317	0.739369
314	C	0.517499	0.488592	0.96231
315	H	0.527763	0.478616	0.932684
316	N	0.476007	0.530396	0.920228
317	N	0.530908	0.474635	0.751836
318	O	0.516029	0.560148	0.897695
319	O	0.490926	0.444942	0.774436
320	O	0.560054	0.514378	0.774915
321	O	0.446908	0.490708	0.897072
322	C	0.531604	0.05789	0.669929
323	C	0.517713	0.029682	0.710802
324	C	0.490096	0.974237	0.709657
325	C	0.476209	0.946644	0.002017
326	C	0.490328	0.974852	0.961148
327	H	0.480033	0.95394	0.739252
328	C	0.51794	0.030297	0.962293
329	H	0.528067	0.050593	0.932694
330	N	0.476766	0.947087	0.920097
331	N	0.531874	0.057447	0.751853
332	O	0.516845	0.957608	0.897541
333	O	0.561623	0.047131	0.774339
334	O	0.49218	0.046808	0.775019
335	O	0.44752	0.957521	0.896995
336	C	0.947595	0.4742	0.669933
337	C	0.975774	0.488529	0.710816
338	C	0.975207	0.487957	0.962306
339	H	0.954925	0.477628	0.932701
340	N	0.947976	0.474956	0.751853
341	O	0.958245	0.515032	0.774302
342	O	0.958609	0.445933	0.775069
