data_C180H108N18_2018-02-15_10:41:39
#******************************************
#
# CIF file created by Zeo++
# Zeo++ is an open source package to
# analyze microporous materials
#
#*******************************************

_cell_length_a		29.9189   
_cell_length_b		29.919   
_cell_length_c		29.8074   
_cell_angle_alpha		90   
_cell_angle_beta		90   
_cell_angle_gamma		120   

_symmetry_space_group_name_H-M		'P1'
_symmetry_Int_Tables_number		1
_symmetry_cell_setting		Monoclinic

loop_
_symmetry_equiv_pos_as_xyz
'+x,+y,+z'

loop_
_atom_site_label
_atom_site_type_symbol
_atom_site_fract_x
_atom_site_fract_y
_atom_site_fract_z
1	C	0.029921	0.51577	0.043686
2	C	0.029901	0.515758	0.296239
3	C	0.058338	0.529976	0.336624
4	H	0.048216	0.524917	0.074078
5	H	0.04818	0.524897	0.26584
6	C	0.029921	0.51577	0.37702
7	C	0.029901	0.515758	0.629572
8	C	0.058338	0.529976	0.669958
9	H	0.048216	0.524917	0.407412
10	H	0.04818	0.524897	0.599173
11	C	0.029921	0.51577	0.710354
12	C	0.029901	0.515758	0.962905
13	C	0.058338	0.529976	0.00329
14	H	0.048216	0.524917	0.740745
15	H	0.04818	0.524897	0.932507
16	C	0.281813	0.641714	0.003224
17	C	0.311575	0.616686	0.003224
18	C	0.366364	0.641714	0.003224
19	C	0.391392	0.696503	0.003224
20	C	0.366363	0.726263	0.003224
21	C	0.311574	0.696503	0.003224
22	C	0.394793	0.613286	0.003233
23	C	0.369663	0.558185	0.003241
24	C	0.396609	0.530779	0.003261
25	C	0.450846	0.557232	0.003276
26	C	0.4773	0.611468	0.003261
27	C	0.449893	0.638415	0.003241
28	C	0.224956	0.613286	0.003233
29	C	0.194985	0.558185	0.00324
30	C	0.140632	0.530779	0.003261
31	C	0.112849	0.557232	0.003276
32	C	0.140631	0.611468	0.003261
33	C	0.194985	0.638415	0.00324
34	C	0.394794	0.783124	0.003233
35	C	0.369663	0.813092	0.00324
36	C	0.396608	0.867444	0.003261
37	C	0.450846	0.895228	0.003276
38	C	0.4773	0.867444	0.003261
39	C	0.449893	0.813092	0.00324
40	H	0.121463	0.491239	0.003266
41	H	0.211478	0.535634	0.003232
42	H	0.121464	0.631838	0.003266
43	H	0.211479	0.67746	0.003232
44	H	0.33062	0.796601	0.003232
45	H	0.37624	0.886614	0.003266
46	H	0.472445	0.796601	0.003232
47	H	0.516839	0.886614	0.003266
48	H	0.472444	0.67746	0.003232
49	H	0.516837	0.631838	0.003266
50	H	0.376239	0.491239	0.003266
51	H	0.330619	0.535634	0.003232
52	H	0.292237	0.578011	0.003224
53	H	0.292237	0.715842	0.003224
54	H	0.430069	0.715842	0.003224
55	C	0.727882	0.364748	0.003231
56	C	0.698119	0.389775	0.003227
57	C	0.643331	0.364748	0.003231
58	C	0.618302	0.309958	0.003227
59	C	0.643329	0.280197	0.003231
60	C	0.698121	0.309958	0.003227
61	C	0.614902	0.393175	0.003247
62	C	0.640035	0.44828	0.00326
63	C	0.613089	0.475693	0.00329
64	C	0.558869	0.44921	0.00331
65	C	0.532387	0.394989	0.00329
66	C	0.559799	0.368045	0.00326
67	C	0.784738	0.393175	0.003247
68	C	0.814711	0.44828	0.00326
69	C	0.869071	0.475693	0.00329
70	C	0.896806	0.44921	0.00331
71	C	0.869067	0.394989	0.00329
72	C	0.814712	0.368045	0.00326
73	C	0.614903	0.223339	0.003247
74	C	0.640033	0.193367	0.00326
75	C	0.613088	0.139011	0.00329
76	C	0.558871	0.111275	0.00331
77	C	0.532387	0.139011	0.00329
78	C	0.559799	0.193367	0.00326
79	H	0.888239	0.515233	0.003293
80	H	0.798218	0.470831	0.003247
81	H	0.888238	0.374619	0.003293
82	H	0.798217	0.329001	0.003247
83	H	0.679077	0.209862	0.003246
84	H	0.633461	0.119841	0.003293
85	H	0.53725	0.209862	0.003246
86	H	0.492845	0.119841	0.003293
87	H	0.537248	0.329001	0.003247
88	H	0.492846	0.374619	0.003293
89	H	0.63346	0.515233	0.003293
90	H	0.679079	0.470831	0.003247
91	H	0.717456	0.42845	0.003227
92	H	0.717457	0.29062	0.003227
93	H	0.579628	0.29062	0.003227
94	C	0.49231	0.515766	0.043686
95	N	0.518515	0.489564	0.042644
96	C	0.531764	0.476315	0.003309
97	N	0.518524	0.489557	0.2973
98	C	0.49232	0.515758	0.296239
99	C	0.478101	0.529976	0.336624
100	H	0.483163	0.524917	0.074078
101	H	0.48318	0.524897	0.26584
102	C	0.49231	0.978156	0.043686
103	N	0.518516	0.030564	0.042644
104	C	0.531765	0.057062	0.003309
105	N	0.518525	0.030582	0.2973
106	C	0.49232	0.978175	0.296239
107	C	0.478102	0.949739	0.336624
108	H	0.483164	0.959862	0.074078
109	H	0.483181	0.959897	0.26584
110	N	0.977514	0.489564	0.042644
111	C	0.951015	0.476315	0.003309
112	N	0.9775	0.489557	0.2973
113	C	0.281813	0.641714	0.336557
114	C	0.311575	0.616686	0.336557
115	C	0.366364	0.641714	0.336557
116	C	0.391392	0.696503	0.336557
117	C	0.366363	0.726263	0.336557
118	C	0.311574	0.696503	0.336557
119	C	0.394793	0.613286	0.336567
120	C	0.369663	0.558185	0.336574
121	C	0.396609	0.530779	0.336594
122	C	0.450846	0.557232	0.336611
123	C	0.4773	0.611468	0.336594
124	C	0.449893	0.638415	0.336574
125	C	0.224956	0.613286	0.336567
126	C	0.194985	0.558185	0.336574
127	C	0.140632	0.530779	0.336594
128	C	0.112849	0.557232	0.336611
129	C	0.140631	0.611468	0.336594
130	C	0.194985	0.638415	0.336574
131	C	0.394794	0.783124	0.336567
132	C	0.369663	0.813092	0.336574
133	C	0.396608	0.867444	0.336594
134	C	0.450846	0.895228	0.336611
135	C	0.4773	0.867444	0.336594
136	C	0.449893	0.813092	0.336574
137	H	0.121463	0.491239	0.336601
138	H	0.211478	0.535634	0.336564
139	H	0.121464	0.631838	0.336601
140	H	0.211479	0.67746	0.336564
141	H	0.33062	0.796601	0.336564
142	H	0.37624	0.886614	0.336601
143	H	0.472445	0.796601	0.336564
144	H	0.516839	0.886614	0.336601
145	H	0.472444	0.67746	0.336564
146	H	0.516837	0.631838	0.336601
147	H	0.376239	0.491239	0.336601
148	H	0.330619	0.535634	0.336564
149	H	0.292237	0.578011	0.336557
150	H	0.292237	0.715842	0.336557
151	H	0.430069	0.715842	0.336557
152	C	0.727882	0.364748	0.336564
153	C	0.698119	0.389775	0.336561
154	C	0.643331	0.364748	0.336564
155	C	0.618302	0.309958	0.336561
156	C	0.643329	0.280197	0.336564
157	C	0.698121	0.309958	0.336561
158	C	0.614902	0.393175	0.336581
159	C	0.640035	0.44828	0.336594
160	C	0.613089	0.475693	0.336624
161	C	0.558869	0.44921	0.336645
162	C	0.532387	0.394989	0.336624
163	C	0.559799	0.368045	0.336594
164	C	0.784738	0.393175	0.336581
165	C	0.814711	0.44828	0.336594
166	C	0.869071	0.475693	0.336624
167	C	0.896806	0.44921	0.336645
168	C	0.869067	0.394989	0.336624
169	C	0.814712	0.368045	0.336594
170	C	0.614903	0.223339	0.336581
171	C	0.640033	0.193367	0.336594
172	C	0.613088	0.139011	0.336624
173	C	0.558871	0.111275	0.336645
174	C	0.532387	0.139011	0.336624
175	C	0.559799	0.193367	0.336594
176	H	0.888239	0.515233	0.336628
177	H	0.798218	0.470831	0.336581
178	H	0.888238	0.374619	0.336628
179	H	0.798217	0.329001	0.336581
180	H	0.679077	0.209862	0.336581
181	H	0.633461	0.119841	0.336628
182	H	0.53725	0.209862	0.336581
183	H	0.492845	0.119841	0.336628
184	H	0.537248	0.329001	0.336581
185	H	0.492846	0.374619	0.336628
186	H	0.63346	0.515233	0.336628
187	H	0.679079	0.470831	0.336581
188	H	0.717456	0.42845	0.336561
189	H	0.717457	0.29062	0.336561
190	H	0.579628	0.29062	0.336561
191	C	0.49231	0.515766	0.37702
192	N	0.518515	0.489564	0.375977
193	C	0.531764	0.476315	0.336641
194	N	0.518524	0.489557	0.630632
195	C	0.49232	0.515758	0.629572
196	C	0.478101	0.529976	0.669958
197	H	0.483163	0.524917	0.407412
198	H	0.48318	0.524897	0.599173
199	C	0.49231	0.978156	0.37702
200	N	0.518516	0.030564	0.375977
201	C	0.531765	0.057062	0.336645
202	N	0.518525	0.030582	0.630632
203	C	0.49232	0.978175	0.629572
204	C	0.478102	0.949739	0.669958
205	H	0.483164	0.959862	0.407412
206	H	0.483181	0.959897	0.599173
207	N	0.977514	0.489564	0.375977
208	C	0.951015	0.476315	0.336641
209	N	0.9775	0.489557	0.630632
210	C	0.281813	0.641714	0.669891
211	C	0.311575	0.616686	0.669891
212	C	0.366364	0.641714	0.669891
213	C	0.391392	0.696503	0.669891
214	C	0.366363	0.726263	0.669891
215	C	0.311574	0.696503	0.669891
216	C	0.394793	0.613286	0.669901
217	C	0.369663	0.558185	0.669907
218	C	0.396609	0.530779	0.669927
219	C	0.450846	0.557232	0.669944
220	C	0.4773	0.611468	0.669927
221	C	0.449893	0.638415	0.669907
222	C	0.224956	0.613286	0.669901
223	C	0.194985	0.558185	0.669907
224	C	0.140632	0.530779	0.669927
225	C	0.112849	0.557232	0.669944
226	C	0.140631	0.611468	0.669927
227	C	0.194985	0.638415	0.669907
228	C	0.394794	0.783124	0.669901
229	C	0.369663	0.813092	0.669907
230	C	0.396608	0.867444	0.669927
231	C	0.450846	0.895228	0.669944
232	C	0.4773	0.867444	0.669927
233	C	0.449893	0.813092	0.669907
234	H	0.121463	0.491239	0.669934
235	H	0.211478	0.535634	0.669897
236	H	0.121464	0.631838	0.669934
237	H	0.211479	0.67746	0.669897
238	H	0.33062	0.796601	0.669897
239	H	0.37624	0.886614	0.669934
240	H	0.472445	0.796601	0.669897
241	H	0.516839	0.886614	0.669934
242	H	0.472444	0.67746	0.669897
243	H	0.516837	0.631838	0.669934
244	H	0.376239	0.491239	0.669934
245	H	0.330619	0.535634	0.669897
246	H	0.292237	0.578011	0.669891
247	H	0.292237	0.715842	0.669891
248	H	0.430069	0.715842	0.669891
249	C	0.727882	0.364748	0.669897
250	C	0.698119	0.389775	0.669894
251	C	0.643331	0.364748	0.669897
252	C	0.618302	0.309958	0.669894
253	C	0.643329	0.280197	0.669897
254	C	0.698121	0.309958	0.669894
255	C	0.614902	0.393175	0.669914
256	C	0.640035	0.44828	0.669927
257	C	0.613089	0.475693	0.669958
258	C	0.558869	0.44921	0.669978
259	C	0.532387	0.394989	0.669958
260	C	0.559799	0.368045	0.669927
261	C	0.784738	0.393175	0.669914
262	C	0.814711	0.44828	0.669927
263	C	0.869071	0.475693	0.669958
264	C	0.896806	0.44921	0.669978
265	C	0.869067	0.394989	0.669958
266	C	0.814712	0.368045	0.669927
267	C	0.614903	0.223339	0.669914
268	C	0.640033	0.193367	0.669927
269	C	0.613088	0.139011	0.669958
270	C	0.558871	0.111275	0.669978
271	C	0.532387	0.139011	0.669958
272	C	0.559799	0.193367	0.669927
273	H	0.888239	0.515233	0.669961
274	H	0.798218	0.470831	0.669914
275	H	0.888238	0.374619	0.669961
276	H	0.798217	0.329001	0.669914
277	H	0.679077	0.209862	0.669914
278	H	0.633461	0.119841	0.669961
279	H	0.53725	0.209862	0.669914
280	H	0.492845	0.119841	0.669961
281	H	0.537248	0.329001	0.669914
282	H	0.492846	0.374619	0.669961
283	H	0.63346	0.515233	0.669961
284	H	0.679079	0.470831	0.669914
285	H	0.717456	0.42845	0.669894
286	H	0.717457	0.29062	0.669894
287	H	0.579628	0.29062	0.669894
288	C	0.49231	0.515766	0.710354
289	N	0.518515	0.489564	0.70931
290	C	0.531764	0.476315	0.669974
291	N	0.518524	0.489557	0.963965
292	C	0.49232	0.515758	0.962905
293	C	0.478101	0.529976	0.00329
294	H	0.483163	0.524917	0.740745
295	H	0.48318	0.524897	0.932507
296	C	0.49231	0.978156	0.710354
297	N	0.518516	0.030564	0.70931
298	C	0.531765	0.057062	0.669978
299	N	0.518525	0.030582	0.963965
300	C	0.49232	0.978175	0.962905
301	C	0.478102	0.949739	0.00329
302	H	0.483164	0.959862	0.740745
303	H	0.483181	0.959897	0.932507
304	N	0.977514	0.489564	0.70931
305	C	0.951015	0.476315	0.669974
306	N	0.9775	0.489557	0.963965
