data_C171H108N36_2018-02-15_10:42:30
#******************************************
#
# CIF file created by Zeo++
# Zeo++ is an open source package to
# analyze microporous materials
#
#*******************************************

_cell_length_a		29.4193   
_cell_length_b		29.4193   
_cell_length_c		29.9652   
_cell_angle_alpha		90   
_cell_angle_beta		90   
_cell_angle_gamma		120   

_symmetry_space_group_name_H-M		'P1'
_symmetry_Int_Tables_number		1
_symmetry_cell_setting		Monoclinic

loop_
_symmetry_equiv_pos_as_xyz
'+x,+y,+z'

loop_
_atom_site_label
_atom_site_type_symbol
_atom_site_fract_x
_atom_site_fract_y
_atom_site_fract_z
1	C	0.361543	0.721246	0.999007
2	N	0.386928	0.693284	0.999064
3	C	0.360864	0.639912	0.999014
4	N	0.307518	0.61453	0.999057
5	C	0.28021	0.640591	0.999
6	N	0.308173	0.69394	0.999054
7	C	0.388381	0.611637	0.999581
8	C	0.439875	0.634429	0.017047
9	C	0.466703	0.606075	0.01856
10	C	0.443642	0.55432	0.0016
11	C	0.392469	0.531838	0.983466
12	C	0.365081	0.55969	0.983039
13	C	0.389819	0.777039	0.999571
14	C	0.441766	0.805684	0.983032
15	C	0.469614	0.860924	0.983446
16	C	0.447141	0.889615	0.001592
17	C	0.395386	0.860924	0.018555
18	C	0.367027	0.805743	0.017035
19	C	0.224417	0.613073	0.999561
20	C	0.195772	0.636368	0.983009
21	C	0.140532	0.608984	0.983439
22	C	0.111841	0.557818	0.001578
23	C	0.140533	0.534754	0.018541
24	C	0.195715	0.56157	0.017005
25	H	0.507091	0.879925	0.971161
26	H	0.459699	0.786628	0.969723
27	H	0.377294	0.879929	0.031642
28	H	0.329774	0.786742	0.029809
29	H	0.214828	0.673373	0.96973
30	H	0.12153	0.627458	0.971155
31	H	0.214711	0.543327	0.029807
32	H	0.121525	0.497652	0.031623
33	H	0.328094	0.541757	0.96973
34	H	0.374007	0.494374	0.971161
35	H	0.503802	0.624169	0.031645
36	H	0.458127	0.671681	0.029821
37	C	0.641094	0.279743	0.999264
38	N	0.614986	0.307018	0.999344
39	C	0.639812	0.360356	0.999267
40	N	0.693193	0.386462	0.999344
41	C	0.721707	0.361639	0.999267
42	N	0.694431	0.308258	0.999341
43	C	0.611189	0.387727	7.2e-05
44	C	0.555994	0.360726	0.006082
45	C	0.527941	0.387865	0.007958
46	C	0.55415	0.443091	0.003979
47	C	0.608955	0.470189	0.996805
48	C	0.636982	0.443032	0.995266
49	C	0.613729	0.22375	7.2e-05
50	C	0.558421	0.19423	0.995259
51	C	0.531276	0.139049	0.996808
52	C	0.558382	0.11135	0.003981
53	C	0.613606	0.140374	0.007967
54	C	0.640736	0.195565	0.006089
55	C	0.777699	0.390263	5.8e-05
56	C	0.807213	0.36447	0.995249
57	C	0.862394	0.392498	0.996791
58	C	0.890104	0.447306	0.003957
59	C	0.861088	0.473517	0.007915
60	C	0.805894	0.445457	0.006071
61	H	0.491366	0.119203	0.992823
62	H	0.537019	0.212521	0.990354
63	H	0.634501	0.12155	0.013051
64	H	0.680639	0.214894	0.009853
65	H	0.788918	0.324773	0.99035
66	H	0.882233	0.372426	0.99281
67	H	0.786568	0.466032	0.009834
68	H	0.879914	0.51323	0.013023
69	H	0.676678	0.464435	0.990357
70	H	0.629029	0.510098	0.99282
71	H	0.488221	0.366977	0.013032
72	H	0.535415	0.320824	0.00984
73	C	0.537412	0.512198	0.036239
74	C	0.525935	0.470687	0.005809
75	C	0.485011	0.458194	0.30823
76	N	0.459248	0.485606	0.307673
77	C	0.471014	0.525888	0.00289
78	N	0.509762	0.537781	0.033181
79	H	0.474798	0.42909	0.285121
80	C	0.575677	0.529165	0.073387
81	H	0.592814	0.5041	0.077686
82	H	0.556147	0.528302	0.104621
83	H	0.607257	0.569243	0.067363
84	C	0.489305	0.025502	0.036273
85	C	0.530804	0.05554	0.005831
86	C	0.543295	0.027108	0.308251
87	N	0.515862	0.973936	0.307675
88	C	0.475584	0.945417	0.002896
89	N	0.463704	0.972271	0.033199
90	H	0.57235	0.046	0.285104
91	C	0.472303	0.046807	0.07339
92	H	0.497373	0.089008	0.077692
93	H	0.473129	0.02814	0.104635
94	H	0.432234	0.038316	0.067328
95	C	0.975949	0.46405	0.036222
96	C	0.945913	0.475523	0.005787
97	C	0.974345	0.516444	0.308209
98	N	0.02752	0.542212	0.307654
99	C	0.056036	0.530449	0.002875
100	N	0.029179	0.491701	0.033167
101	H	0.955457	0.526657	0.285097
102	C	0.95465	0.425789	0.073373
103	H	0.912449	0.408657	0.077671
104	H	0.973316	0.445324	0.104607
105	H	0.963152	0.394213	0.067353
106	C	0.361543	0.721246	0.33234
107	N	0.386928	0.693284	0.332398
108	C	0.360864	0.639912	0.332347
109	N	0.307518	0.61453	0.332392
110	C	0.28021	0.640591	0.332334
111	N	0.308173	0.69394	0.332387
112	C	0.388381	0.611637	0.332917
113	C	0.439875	0.634429	0.35038
114	C	0.466703	0.606075	0.351892
115	C	0.443642	0.55432	0.334932
116	C	0.392469	0.531838	0.316801
117	C	0.365081	0.55969	0.316375
118	C	0.389819	0.777039	0.332906
119	C	0.441766	0.805684	0.316368
120	C	0.469614	0.860924	0.31678
121	C	0.447141	0.889615	0.334926
122	C	0.395386	0.860924	0.351889
123	C	0.367027	0.805743	0.350367
124	C	0.224417	0.613073	0.332894
125	C	0.195772	0.636368	0.316342
126	C	0.140532	0.608984	0.316774
127	C	0.111841	0.557818	0.334912
128	C	0.140533	0.534754	0.351872
129	C	0.195715	0.56157	0.350337
130	H	0.507091	0.879925	0.304497
131	H	0.459699	0.786628	0.303059
132	H	0.377294	0.879929	0.364974
133	H	0.329774	0.786742	0.363142
134	H	0.214828	0.673373	0.303065
135	H	0.12153	0.627458	0.304488
136	H	0.214711	0.543327	0.363139
137	H	0.121525	0.497652	0.364954
138	H	0.328094	0.541757	0.303065
139	H	0.374007	0.494374	0.304496
140	H	0.503802	0.624169	0.364977
141	H	0.458127	0.671681	0.363152
142	C	0.641094	0.279743	0.332598
143	N	0.614986	0.307018	0.33268
144	C	0.639812	0.360356	0.332602
145	N	0.693193	0.386462	0.332679
146	C	0.721707	0.361639	0.332601
147	N	0.694431	0.308258	0.332677
148	C	0.611189	0.387727	0.333406
149	C	0.555994	0.360726	0.339414
150	C	0.527941	0.387865	0.34129
151	C	0.55415	0.443091	0.337312
152	C	0.608955	0.470189	0.33014
153	C	0.636982	0.443032	0.328599
154	C	0.613729	0.22375	0.333405
155	C	0.558421	0.19423	0.328595
156	C	0.531276	0.139049	0.330144
157	C	0.558382	0.11135	0.337315
158	C	0.613606	0.140374	0.3413
159	C	0.640736	0.195565	0.339421
160	C	0.777699	0.390263	0.333394
161	C	0.807213	0.36447	0.328584
162	C	0.862394	0.392498	0.330126
163	C	0.890104	0.447306	0.337292
164	C	0.861088	0.473517	0.341246
165	C	0.805894	0.445457	0.339404
166	H	0.491366	0.119203	0.326157
167	H	0.537019	0.212521	0.323689
168	H	0.634501	0.12155	0.346382
169	H	0.680639	0.214894	0.343185
170	H	0.788918	0.324773	0.323684
171	H	0.882233	0.372426	0.326144
172	H	0.786568	0.466032	0.343169
173	H	0.879914	0.51323	0.346356
174	H	0.676678	0.464435	0.323693
175	H	0.629029	0.510098	0.326155
176	H	0.488221	0.366977	0.346366
177	H	0.535415	0.320824	0.343172
178	C	0.537412	0.512198	0.369573
179	C	0.525935	0.470687	0.339141
180	C	0.485011	0.458194	0.641562
181	N	0.459248	0.485606	0.641005
182	C	0.471014	0.525888	0.336224
183	N	0.509762	0.537781	0.366512
184	H	0.474798	0.42909	0.618455
185	C	0.575677	0.529165	0.406719
186	H	0.592814	0.5041	0.411017
187	H	0.556147	0.528302	0.437955
188	H	0.607257	0.569243	0.400695
189	C	0.489305	0.025502	0.369606
190	C	0.530804	0.05554	0.339164
191	C	0.543295	0.027108	0.641582
192	N	0.515862	0.973936	0.641008
193	C	0.475584	0.945417	0.336231
194	N	0.463704	0.972271	0.366532
195	H	0.57235	0.046	0.618438
196	C	0.472303	0.046807	0.406722
197	H	0.497373	0.089008	0.411024
198	H	0.473129	0.02814	0.437969
199	H	0.432234	0.038316	0.400662
200	C	0.975949	0.46405	0.369556
201	C	0.945913	0.475523	0.339121
202	C	0.974345	0.516444	0.641542
203	N	0.02752	0.542212	0.640988
204	C	0.056036	0.530449	0.336207
205	N	0.029179	0.491701	0.366499
206	H	0.955457	0.526657	0.618428
207	C	0.95465	0.425789	0.406706
208	H	0.912449	0.408657	0.411004
209	H	0.973316	0.445324	0.437939
210	H	0.963152	0.394213	0.400685
211	C	0.361543	0.721246	0.665673
212	N	0.386928	0.693284	0.66573
213	C	0.360864	0.639912	0.66568
214	N	0.307518	0.61453	0.665727
215	C	0.28021	0.640591	0.665667
216	N	0.308173	0.69394	0.66572
217	C	0.388381	0.611637	0.666251
218	C	0.439875	0.634429	0.683714
219	C	0.466703	0.606075	0.685226
220	C	0.443642	0.55432	0.668266
221	C	0.392469	0.531838	0.650135
222	C	0.365081	0.55969	0.649708
223	C	0.389819	0.777039	0.666237
224	C	0.441766	0.805684	0.649701
225	C	0.469614	0.860924	0.650112
226	C	0.447141	0.889615	0.668256
227	C	0.395386	0.860924	0.685219
228	C	0.367027	0.805743	0.683701
229	C	0.224417	0.613073	0.666227
230	C	0.195772	0.636368	0.649675
231	C	0.140532	0.608984	0.650109
232	C	0.111841	0.557818	0.668243
233	C	0.140533	0.534754	0.685206
234	C	0.195715	0.56157	0.683671
235	H	0.507091	0.879925	0.637831
236	H	0.459699	0.786628	0.636393
237	H	0.377294	0.879929	0.698308
238	H	0.329774	0.786742	0.696476
239	H	0.214828	0.673373	0.636399
240	H	0.12153	0.627458	0.637821
241	H	0.214711	0.543327	0.696472
242	H	0.121525	0.497652	0.698288
243	H	0.328094	0.541757	0.636399
244	H	0.374007	0.494374	0.637828
245	H	0.503802	0.624169	0.698311
246	H	0.458127	0.671681	0.696486
247	C	0.641094	0.279743	0.66593
248	N	0.614986	0.307018	0.666014
249	C	0.639812	0.360356	0.665934
250	N	0.693193	0.386462	0.66601
251	C	0.721707	0.361639	0.665934
252	N	0.694431	0.308258	0.66601
253	C	0.611189	0.387727	0.666738
254	C	0.555994	0.360726	0.672748
255	C	0.527941	0.387865	0.674624
256	C	0.55415	0.443091	0.670646
257	C	0.608955	0.470189	0.663474
258	C	0.636982	0.443032	0.661932
259	C	0.613729	0.22375	0.666738
260	C	0.558421	0.19423	0.661929
261	C	0.531276	0.139049	0.663477
262	C	0.558382	0.11135	0.670646
263	C	0.613606	0.140374	0.674634
264	C	0.640736	0.195565	0.672755
265	C	0.777699	0.390263	0.666728
266	C	0.807213	0.36447	0.661916
267	C	0.862394	0.392498	0.663461
268	C	0.890104	0.447306	0.670622
269	C	0.861088	0.473517	0.67458
270	C	0.805894	0.445457	0.672738
271	H	0.491366	0.119203	0.659489
272	H	0.537019	0.212521	0.657023
273	H	0.634501	0.12155	0.679716
274	H	0.680639	0.214894	0.676519
275	H	0.788918	0.324773	0.657017
276	H	0.882233	0.372426	0.659476
277	H	0.786568	0.466032	0.676499
278	H	0.879914	0.51323	0.67969
279	H	0.676678	0.464435	0.657027
280	H	0.629029	0.510098	0.659486
281	H	0.488221	0.366977	0.679696
282	H	0.535415	0.320824	0.676506
283	C	0.537412	0.512198	0.702903
284	C	0.525935	0.470687	0.672475
285	C	0.485011	0.458194	0.974896
286	N	0.459248	0.485606	0.974338
287	C	0.471014	0.525888	0.669554
288	N	0.509762	0.537781	0.699846
289	H	0.474798	0.42909	0.951786
290	C	0.575677	0.529165	0.740053
291	H	0.592814	0.5041	0.744351
292	H	0.556147	0.528302	0.771286
293	H	0.607257	0.569243	0.734029
294	C	0.489305	0.025502	0.70294
295	C	0.530804	0.05554	0.672498
296	C	0.543295	0.027108	0.974916
297	N	0.515862	0.973936	0.974342
298	C	0.475584	0.945417	0.669561
299	N	0.463704	0.972271	0.699863
300	H	0.57235	0.046	0.951769
301	C	0.472303	0.046807	0.740056
302	H	0.497373	0.089008	0.744358
303	H	0.473129	0.02814	0.771299
304	H	0.432234	0.038316	0.733993
305	C	0.975949	0.46405	0.702886
306	C	0.945913	0.475523	0.672451
307	C	0.974345	0.516444	0.974876
308	N	0.02752	0.542212	0.974318
309	C	0.056036	0.530449	0.669541
310	N	0.029179	0.491701	0.699833
311	H	0.955457	0.526657	0.951762
312	C	0.95465	0.425789	0.74004
313	H	0.912449	0.408657	0.744338
314	H	0.973316	0.445324	0.771273
315	H	0.963152	0.394213	0.734019
