data_C216H138N24_2018-02-15_10:47:53
#******************************************
#
# CIF file created by Zeo++
# Zeo++ is an open source package to
# analyze microporous materials
#
#*******************************************

_cell_length_a		29.8654   
_cell_length_b		29.8632   
_cell_length_c		29.859   
_cell_angle_alpha		90   
_cell_angle_beta		90   
_cell_angle_gamma		90.0261   

_symmetry_space_group_name_H-M		'P1'
_symmetry_Int_Tables_number		1
_symmetry_cell_setting		Monoclinic

loop_
_symmetry_equiv_pos_as_xyz
'+x,+y,+z'

loop_
_atom_site_label
_atom_site_type_symbol
_atom_site_fract_x
_atom_site_fract_y
_atom_site_fract_z
1	C	0.085193	0.120459	0.013009
2	C	0.118369	0.088294	0.01249
3	C	0.09799	0.046155	0.012543
4	N	0.053326	0.054403	0.013022
5	C	0.043697	0.098792	0.013126
6	C	0.001408	0.120799	0.013311
7	C	0.959313	0.09863	0.013636
8	N	0.95134	0.054059	0.013755
9	C	0.907047	0.044712	0.013483
10	C	0.885164	0.08605	0.013491
11	C	0.91734	0.119243	0.01338
12	C	0.886151	0.001956	0.013148
13	C	0.909419	0.960346	0.012988
14	N	0.95409	0.952085	0.012872
15	C	0.963723	0.907696	0.012235
16	C	0.922223	0.886037	0.01232
17	C	0.889042	0.918211	0.012509
18	C	0.006027	0.885709	0.011735
19	C	0.04812	0.907897	0.011714
20	N	0.056097	0.952463	0.011875
21	C	0.100396	0.961809	0.011694
22	C	0.122282	0.920478	0.011488
23	C	0.090099	0.88729	0.011283
24	C	0.121276	0.004567	0.011902
25	C	0.169052	0.005664	0.011923
26	C	0.193426	0.000322	0.305053
27	C	0.240587	0.000657	0.305437
28	C	0.264534	0.006104	0.012517
29	C	0.239925	0.012163	0.052619
30	C	0.192801	0.011763	0.052368
31	C	0.006361	0.837918	0.011716
32	C	0.000261	0.813647	0.304887
33	C	0.000299	0.766479	0.305184
34	C	0.006241	0.742422	0.012129
35	C	0.013015	0.766927	0.052184
36	C	0.012883	0.814056	0.052027
37	C	0.838399	0.000901	0.011506
38	C	0.812845	0.994589	0.050821
39	C	0.765713	0.994381	0.048932
40	C	0.742967	0.000365	0.007897
41	C	0.768759	0.006899	0.301961
42	C	0.815851	0.007009	0.30371
43	C	0.001109	0.16856	0.011666
44	C	0.995324	0.194223	0.050987
45	C	0.007025	0.190988	0.303774
46	C	0.0072	0.238076	0.301931
47	C	0.001169	0.263981	0.007871
48	C	0.995413	0.241352	0.049006
49	H	0.991215	0.259126	0.078027
50	H	0.991132	0.178766	0.081299
51	H	0.012145	0.253109	0.271605
52	H	0.011531	0.173162	0.274833
53	H	0.091057	0.154179	0.013148
54	H	0.151888	0.095192	0.012023
55	H	0.030947	0.031323	0.013033
56	H	0.976467	0.975164	0.012951
57	H	0.910655	0.1528	0.013059
58	H	0.851419	0.091714	0.01335
59	H	0.828383	0.990346	0.081082
60	H	0.748022	0.989891	0.077961
61	H	0.833589	0.011983	0.27479
62	H	0.75364	0.012085	0.271722
63	H	0.855519	0.911323	0.012324
64	H	0.916355	0.85232	0.011972
65	H	0.156027	0.914815	0.011413
66	H	0.096789	0.853733	0.010964
67	H	0.995611	0.830159	0.275208
68	H	0.995591	0.749736	0.275631
69	H	0.01766	0.830849	0.081537
70	H	0.018308	0.75079	0.081884
71	H	0.175928	0.015892	0.081928
72	H	0.255978	0.017025	0.082437
73	H	0.257403	0.996397	0.275862
74	H	0.176994	0.995898	0.275291
75	N	0.005735	0.697789	0.009719
76	N	0.698294	0.000513	0.009058
77	N	0.001363	0.308659	0.008915
78	N	0.309171	0.005658	0.01019
79	C	0.00043	0.384607	0.320956
80	C	0.015297	0.402027	0.029148
81	C	0.01576	0.448492	0.037249
82	C	0.001495	0.47944	0.337567
83	C	0.986797	0.461923	0.296033
84	C	0.986324	0.415501	0.287878
85	H	0.975412	0.482832	0.271389
86	H	0.975186	0.404474	0.257362
87	C	0.001516	0.526685	0.012617
88	C	0.986574	0.544081	0.054103
89	C	0.986387	0.590436	0.062521
90	C	0.001077	0.621457	0.029798
91	C	0.016027	0.604158	0.321574
92	C	0.016139	0.557727	0.313169
93	H	0.974845	0.523126	0.078558
94	H	0.975101	0.601305	0.093038
95	H	0.027417	0.625188	0.297017
96	H	0.02643	0.381071	0.053876
97	H	0.028003	0.546737	0.282959
98	H	0.027487	0.459556	0.067491
99	C	0.000974	0.667112	0.039661
100	C	0.000178	0.338892	0.311525
101	H	0.998058	0.329377	0.2797
102	H	0.995936	0.676371	0.071248
103	C	0.622296	0.999672	0.321235
104	C	0.604968	0.014537	0.029459
105	C	0.558516	0.015099	0.037611
106	C	0.527487	0.000938	0.337952
107	C	0.544916	0.986224	0.29639
108	C	0.591324	0.985658	0.288182
109	H	0.52395	0.974909	0.271757
110	H	0.602278	0.974527	0.25764
111	C	0.480246	0.001078	0.013042
112	C	0.462831	0.986204	0.05455
113	C	0.416479	0.9861	0.062989
114	C	0.38548	0.000811	0.030269
115	C	0.402798	0.015706	0.32203
116	C	0.449223	0.015739	0.313604
117	H	0.483763	0.974447	0.079
118	H	0.405599	0.974839	0.093514
119	H	0.381792	0.02709	0.297462
120	H	0.625987	0.025616	0.054169
121	H	0.460224	0.027555	0.283375
122	H	0.547526	0.026838	0.067871
123	C	0.339819	0.00069	0.040117
124	C	0.667994	0.999387	0.311728
125	H	0.677449	0.997368	0.279877
126	H	0.330534	0.995396	0.071654
127	C	0.085193	0.120459	0.346344
128	C	0.118369	0.088294	0.345822
129	C	0.09799	0.046155	0.345876
130	N	0.053326	0.054403	0.346354
131	C	0.043697	0.098792	0.346458
132	C	0.001408	0.120799	0.346646
133	C	0.959313	0.09863	0.346971
134	N	0.95134	0.054059	0.347088
135	C	0.907047	0.044712	0.346817
136	C	0.885164	0.08605	0.346823
137	C	0.91734	0.119243	0.346713
138	C	0.886151	0.001956	0.346482
139	C	0.909419	0.960346	0.346321
140	N	0.95409	0.952085	0.346207
141	C	0.963723	0.907696	0.345567
142	C	0.922223	0.886037	0.345655
143	C	0.889042	0.918211	0.345842
144	C	0.006027	0.885709	0.345068
145	C	0.04812	0.907897	0.345048
146	N	0.056097	0.952463	0.345209
147	C	0.100396	0.961809	0.345028
148	C	0.122282	0.920478	0.344821
149	C	0.090099	0.88729	0.344616
150	C	0.121276	0.004567	0.345236
151	C	0.169052	0.005664	0.345256
152	C	0.193426	0.000322	0.638387
153	C	0.240587	0.000657	0.638769
154	C	0.264534	0.006104	0.345849
155	C	0.239925	0.012163	0.385951
156	C	0.192801	0.011763	0.385703
157	C	0.006361	0.837918	0.345048
158	C	0.000261	0.813647	0.63822
159	C	0.000299	0.766479	0.638518
160	C	0.006241	0.742422	0.345464
161	C	0.013015	0.766927	0.385519
162	C	0.012883	0.814056	0.385361
163	C	0.838399	0.000901	0.344841
164	C	0.812845	0.994589	0.384155
165	C	0.765713	0.994381	0.382267
166	C	0.742967	0.000365	0.34123
167	C	0.768759	0.006899	0.635296
168	C	0.815851	0.007009	0.637044
169	C	0.001109	0.16856	0.344998
170	C	0.995324	0.194223	0.38432
171	C	0.007025	0.190988	0.637108
172	C	0.0072	0.238076	0.635262
173	C	0.001169	0.263981	0.341204
174	C	0.995413	0.241352	0.38234
175	H	0.991215	0.259126	0.41136
176	H	0.991132	0.178766	0.414632
177	H	0.012145	0.253109	0.60494
178	H	0.011531	0.173162	0.608165
179	H	0.091057	0.154179	0.346482
180	H	0.151888	0.095192	0.345356
181	H	0.030947	0.031323	0.346368
182	H	0.976467	0.975164	0.346284
183	H	0.910655	0.1528	0.346391
184	H	0.851419	0.091714	0.346683
185	H	0.828383	0.990346	0.414414
186	H	0.748022	0.989891	0.411293
187	H	0.833589	0.011983	0.608125
188	H	0.75364	0.012085	0.605057
189	H	0.855519	0.911323	0.345658
190	H	0.916355	0.85232	0.345306
191	H	0.156027	0.914815	0.344747
192	H	0.096789	0.853733	0.344298
193	H	0.995611	0.830159	0.60854
194	H	0.995591	0.749736	0.608965
195	H	0.01766	0.830849	0.41487
196	H	0.018308	0.75079	0.415218
197	H	0.175928	0.015892	0.415262
198	H	0.255978	0.017025	0.415771
199	H	0.257403	0.996397	0.609193
200	H	0.176994	0.995898	0.608624
201	N	0.005735	0.697789	0.343052
202	N	0.698294	0.000513	0.342393
203	N	0.001363	0.308659	0.342249
204	N	0.309171	0.005658	0.343525
205	C	0.00043	0.384607	0.654288
206	C	0.015297	0.402027	0.36248
207	C	0.01576	0.448492	0.370582
208	C	0.001495	0.47944	0.6709
209	C	0.986797	0.461923	0.629365
210	C	0.986324	0.415501	0.621213
211	H	0.975412	0.482832	0.604722
212	H	0.975186	0.404474	0.590696
213	C	0.001516	0.526685	0.345949
214	C	0.986574	0.544081	0.387438
215	C	0.986387	0.590436	0.395854
216	C	0.001077	0.621457	0.36313
217	C	0.016027	0.604158	0.654908
218	C	0.016139	0.557727	0.646502
219	H	0.974845	0.523126	0.411889
220	H	0.975101	0.601305	0.426371
221	H	0.027417	0.625188	0.630349
222	H	0.02643	0.381071	0.38721
223	H	0.028003	0.546737	0.616293
224	H	0.027487	0.459556	0.400824
225	C	0.000974	0.667112	0.372993
226	C	0.000178	0.338892	0.644857
227	H	0.998058	0.329377	0.613035
228	H	0.995936	0.676371	0.404581
229	C	0.622296	0.999672	0.65457
230	C	0.604968	0.014537	0.362792
231	C	0.558516	0.015099	0.370943
232	C	0.527487	0.000938	0.671285
233	C	0.544916	0.986224	0.629723
234	C	0.591324	0.985658	0.621514
235	H	0.52395	0.974909	0.605091
236	H	0.602278	0.974527	0.590974
237	C	0.480246	0.001078	0.346375
238	C	0.462831	0.986204	0.387883
239	C	0.416479	0.9861	0.396323
240	C	0.38548	0.000811	0.363602
241	C	0.402798	0.015706	0.655363
242	C	0.449223	0.015739	0.646937
243	H	0.483763	0.974447	0.412335
244	H	0.405599	0.974839	0.426846
245	H	0.381792	0.02709	0.630795
246	H	0.625987	0.025616	0.387501
247	H	0.460224	0.027555	0.616708
248	H	0.547526	0.026838	0.401206
249	C	0.339819	0.00069	0.373452
250	C	0.667994	0.999387	0.645062
251	H	0.677449	0.997368	0.613212
252	H	0.330534	0.995396	0.404987
253	C	0.085193	0.120459	0.679678
254	C	0.118369	0.088294	0.679155
255	C	0.09799	0.046155	0.679209
256	N	0.053326	0.054403	0.679688
257	C	0.043697	0.098792	0.679792
258	C	0.001408	0.120799	0.679979
259	C	0.959313	0.09863	0.680304
260	N	0.95134	0.054059	0.680421
261	C	0.907047	0.044712	0.68015
262	C	0.885164	0.08605	0.680157
263	C	0.91734	0.119243	0.680046
264	C	0.886151	0.001956	0.679815
265	C	0.909419	0.960346	0.679654
266	N	0.95409	0.952085	0.67954
267	C	0.963723	0.907696	0.678901
268	C	0.922223	0.886037	0.678988
269	C	0.889042	0.918211	0.679175
270	C	0.006027	0.885709	0.678402
271	C	0.04812	0.907897	0.678382
272	N	0.056097	0.952463	0.678542
273	C	0.100396	0.961809	0.678362
274	C	0.122282	0.920478	0.678154
275	C	0.090099	0.88729	0.67795
276	C	0.121276	0.004567	0.678569
277	C	0.169052	0.005664	0.678589
278	C	0.193426	0.000322	0.97172
279	C	0.240587	0.000657	0.972102
280	C	0.264534	0.006104	0.679185
281	C	0.239925	0.012163	0.719287
282	C	0.192801	0.011763	0.719036
283	C	0.006361	0.837918	0.678382
284	C	0.000261	0.813647	0.971553
285	C	0.000299	0.766479	0.971851
286	C	0.006241	0.742422	0.678797
287	C	0.013015	0.766927	0.718852
288	C	0.012883	0.814056	0.718694
289	C	0.838399	0.000901	0.678174
290	C	0.812845	0.994589	0.717489
291	C	0.765713	0.994381	0.7156
292	C	0.742967	0.000365	0.674564
293	C	0.768759	0.006899	0.968629
294	C	0.815851	0.007009	0.970377
295	C	0.001109	0.16856	0.678331
296	C	0.995324	0.194223	0.717653
297	C	0.007025	0.190988	0.970441
298	C	0.0072	0.238076	0.968599
299	C	0.001169	0.263981	0.674537
300	C	0.995413	0.241352	0.715674
301	H	0.991215	0.259126	0.744693
302	H	0.991132	0.178766	0.747965
303	H	0.012145	0.253109	0.938273
304	H	0.011531	0.173162	0.941502
305	H	0.091057	0.154179	0.679815
306	H	0.151888	0.095192	0.67869
307	H	0.030947	0.031323	0.679701
308	H	0.976467	0.975164	0.679617
309	H	0.910655	0.1528	0.679725
310	H	0.851419	0.091714	0.680016
311	H	0.828383	0.990346	0.747748
312	H	0.748022	0.989891	0.744626
313	H	0.833589	0.011983	0.941458
314	H	0.75364	0.012085	0.93839
315	H	0.855519	0.911323	0.678991
316	H	0.916355	0.85232	0.67864
317	H	0.156027	0.914815	0.67808
318	H	0.096789	0.853733	0.677631
319	H	0.995611	0.830159	0.941873
320	H	0.995591	0.749736	0.942299
321	H	0.01766	0.830849	0.748203
322	H	0.018308	0.75079	0.748551
323	H	0.175928	0.015892	0.748595
324	H	0.255978	0.017025	0.749104
325	H	0.257403	0.996397	0.94253
326	H	0.176994	0.995898	0.941957
327	N	0.005735	0.697789	0.676386
328	N	0.698294	0.000513	0.675726
329	N	0.001363	0.308659	0.675582
330	N	0.309171	0.005658	0.676858
331	C	0.00043	0.384607	0.987622
332	C	0.015297	0.402027	0.695814
333	C	0.01576	0.448492	0.703915
334	C	0.001495	0.47944	0.004233
335	C	0.986797	0.461923	0.962698
336	C	0.986324	0.415501	0.954546
337	H	0.975412	0.482832	0.938055
338	H	0.975186	0.404474	0.92403
339	C	0.001516	0.526685	0.679283
340	C	0.986574	0.544081	0.720771
341	C	0.986387	0.590436	0.729187
342	C	0.001077	0.621457	0.696463
343	C	0.016027	0.604158	0.988241
344	C	0.016139	0.557727	0.979835
345	H	0.974845	0.523126	0.745226
346	H	0.975101	0.601305	0.759704
347	H	0.027417	0.625188	0.963683
348	H	0.02643	0.381071	0.720543
349	H	0.028003	0.546737	0.949626
350	H	0.027487	0.459556	0.734157
351	C	0.000974	0.667112	0.706326
352	C	0.000178	0.338892	0.978191
353	H	0.998058	0.329377	0.946368
354	H	0.995936	0.676371	0.737915
355	C	0.622296	0.999672	0.987903
356	C	0.604968	0.014537	0.696125
357	C	0.558516	0.015099	0.704277
358	C	0.527487	0.000938	0.004617
359	C	0.544916	0.986224	0.963056
360	C	0.591324	0.985658	0.954848
361	H	0.52395	0.974909	0.938424
362	H	0.602278	0.974527	0.924307
363	C	0.480246	0.001078	0.679708
364	C	0.462831	0.986204	0.721216
365	C	0.416479	0.9861	0.729656
366	C	0.38548	0.000811	0.696936
367	C	0.402798	0.015706	0.988697
368	C	0.449223	0.015739	0.980271
369	H	0.483763	0.974447	0.745668
370	H	0.405599	0.974839	0.760179
371	H	0.381792	0.02709	0.964128
372	H	0.625987	0.025616	0.720835
373	H	0.460224	0.027555	0.950042
374	H	0.547526	0.026838	0.734539
375	C	0.339819	0.00069	0.706785
376	C	0.667994	0.999387	0.978395
377	H	0.677449	0.997368	0.946545
378	H	0.330534	0.995396	0.73832
