data_C168H120N42O12_2018-02-15_10:34:42
#******************************************
#
# CIF file created by Zeo++
# Zeo++ is an open source package to
# analyze microporous materials
#
#*******************************************

_cell_length_a		25.2391   
_cell_length_b		25.2407   
_cell_length_c		30.0232   
_cell_angle_alpha		90   
_cell_angle_beta		90   
_cell_angle_gamma		90.0377   

_symmetry_space_group_name_H-M		'P1'
_symmetry_Int_Tables_number		1
_symmetry_cell_setting		Monoclinic

loop_
_symmetry_equiv_pos_as_xyz
'+x,+y,+z'

loop_
_atom_site_label
_atom_site_type_symbol
_atom_site_fract_x
_atom_site_fract_y
_atom_site_fract_z
1	C	0.918397	0.850483	0.997993
2	C	0.875025	0.883604	0.000466
3	C	0.893286	0.935817	0.002674
4	N	0.946863	0.932366	0.001818
5	C	0.964183	0.881651	0.999002
6	C	0.016907	0.861877	0.996937
7	C	0.063323	0.893679	0.996847
8	N	0.066474	0.947069	0.998516
9	C	0.117164	0.964188	0.99703
10	C	0.148625	0.918785	0.994395
11	C	0.115461	0.87532	0.994609
12	C	0.135577	0.017327	0.997806
13	C	0.102581	0.062885	0.00046
14	N	0.048994	0.066315	0.000846
15	C	0.031644	0.116987	0.004001
16	C	0.077382	0.148166	0.00577
17	C	0.120788	0.11506	0.003582
18	C	0.978916	0.136769	0.005536
19	C	0.932479	0.105056	0.005292
20	N	0.929389	0.051657	0.004122
21	C	0.87869	0.034573	0.005316
22	C	0.84717	0.079991	0.007174
23	C	0.880338	0.123467	0.007018
24	C	0.860343	0.981426	0.004978
25	C	0.804706	0.97336	0.008283
26	C	0.780948	0.96664	0.050483
27	C	0.725878	0.959465	0.054144
28	C	0.693397	0.959109	0.015777
29	C	0.717435	0.965757	0.306926
30	C	0.772557	0.972702	0.303136
31	C	0.971979	0.192515	0.009277
32	C	0.966214	0.216155	0.051624
33	C	0.959582	0.271261	0.05552
34	C	0.958823	0.303891	0.017249
35	C	0.964635	0.279987	0.308264
36	C	0.971022	0.224836	0.304241
37	C	0.191251	0.025492	0.994542
38	C	0.21417	0.038775	0.286442
39	C	0.269199	0.046167	0.282715
40	C	0.30254	0.040103	0.986871
41	C	0.279393	0.026882	0.028306
42	C	0.224294	0.019819	0.032201
43	C	0.023845	0.806094	0.993057
44	C	0.03434	0.783143	0.284406
45	C	0.020231	0.773017	0.030877
46	C	0.026761	0.717899	0.026661
47	C	0.037556	0.694774	0.984733
48	C	0.041378	0.728109	0.280364
49	H	0.048711	0.712511	0.249522
50	H	0.036974	0.806348	0.25652
51	H	0.023668	0.694655	0.054474
52	H	0.01255	0.788801	0.061618
53	H	0.916104	0.810147	0.995635
54	H	0.836537	0.870966	4.6e-05
55	H	0.970001	0.962512	0.003471
56	H	0.025876	0.036257	0.998089
57	H	0.12796	0.836862	0.992943
58	H	0.189022	0.916883	0.992644
59	H	0.190993	0.042832	0.258659
60	H	0.284806	0.055273	0.252208
61	H	0.208522	0.010067	0.062531
62	H	0.302644	0.022104	0.055944
63	H	0.159257	0.1277	0.004608
64	H	0.079588	0.188478	0.008484
65	H	0.806742	0.081851	0.008499
66	H	0.867878	0.161958	0.008381
67	H	0.966976	0.193445	0.079876
68	H	0.955888	0.287432	0.086612
69	H	0.975219	0.208494	0.273231
70	H	0.964361	0.30271	0.280029
71	H	0.788987	0.977678	0.27224
72	H	0.694808	0.96586	0.278637
73	H	0.709591	0.955298	0.085154
74	H	0.803513	0.967294	0.078822
75	C	0.953231	0.362304	0.02099
76	H	0.943619	0.373914	0.055186
77	H	0.920191	0.374749	0.333156
78	C	0.634972	0.953376	0.019349
79	H	0.623336	0.942826	0.053347
80	H	0.622486	0.920928	0.330884
81	C	0.043673	0.636452	0.980659
82	H	0.073831	0.623536	0.004499
83	H	0.057765	0.625715	0.280749
84	C	0.360905	0.046168	0.982998
85	H	0.373961	0.075181	0.007777
86	H	0.371752	0.061667	0.28355
87	C	0.995443	0.55374	0.325576
88	N	0.990764	0.531399	0.033206
89	C	0.992726	0.478382	0.040183
90	C	0.999621	0.444437	0.003331
91	N	0.004158	0.466742	0.295721
92	C	0.002276	0.519981	0.288323
93	H	0.989448	0.46377	0.071781
94	N	0.00626	0.540729	0.244924
95	O	0.969542	0.523036	0.220942
96	O	0.049523	0.527334	0.227624
97	N	0.002871	0.388863	0.006612
98	H	0.033332	0.37939	0.027895
99	N	0.992603	0.609475	0.323425
100	H	0.964269	0.6202	0.300557
101	C	0.443405	0.997103	0.325983
102	N	0.466148	0.991271	0.033349
103	C	0.519253	0.992773	0.039951
104	C	0.552856	0.000403	0.002971
105	N	0.530149	0.00609	0.295622
106	C	0.476814	0.004684	0.288603
107	H	0.534172	0.988672	0.071377
108	N	0.455605	0.009859	0.245451
109	O	0.472769	0.973633	0.220702
110	O	0.469128	0.053454	0.228796
111	N	0.608482	0.003395	0.005917
112	H	0.618265	0.033346	0.02762
113	N	0.387632	0.994623	0.324186
114	H	0.376462	0.967187	0.300689
115	C	0.918397	0.850483	0.331328
116	C	0.875025	0.883604	0.333799
117	C	0.893286	0.935817	0.336007
118	N	0.946863	0.932366	0.335151
119	C	0.964183	0.881651	0.332338
120	C	0.016907	0.861877	0.33027
121	C	0.063323	0.893679	0.330182
122	N	0.066474	0.947069	0.331848
123	C	0.117164	0.964188	0.330363
124	C	0.148625	0.918785	0.32773
125	C	0.115461	0.87532	0.327942
126	C	0.135577	0.017327	0.331139
127	C	0.102581	0.062885	0.333792
128	N	0.048994	0.066315	0.334179
129	C	0.031644	0.116987	0.337333
130	C	0.077382	0.148166	0.339101
131	C	0.120788	0.11506	0.336913
132	C	0.978916	0.136769	0.338868
133	C	0.932479	0.105056	0.338625
134	N	0.929389	0.051657	0.337456
135	C	0.87869	0.034573	0.338649
136	C	0.84717	0.079991	0.340507
137	C	0.880338	0.123467	0.340351
138	C	0.860343	0.981426	0.338312
139	C	0.804706	0.97336	0.341616
140	C	0.780948	0.96664	0.383817
141	C	0.725878	0.959465	0.387477
142	C	0.693397	0.959109	0.34911
143	C	0.717435	0.965757	0.640259
144	C	0.772557	0.972702	0.636469
145	C	0.971979	0.192515	0.342609
146	C	0.966214	0.216155	0.384956
147	C	0.959582	0.271261	0.388853
148	C	0.958823	0.303891	0.350583
149	C	0.964635	0.279987	0.641598
150	C	0.971022	0.224836	0.637574
151	C	0.191251	0.025492	0.327876
152	C	0.21417	0.038775	0.619775
153	C	0.269199	0.046167	0.616048
154	C	0.30254	0.040103	0.320206
155	C	0.279393	0.026882	0.361641
156	C	0.224294	0.019819	0.365534
157	C	0.023845	0.806094	0.326389
158	C	0.03434	0.783143	0.61774
159	C	0.020231	0.773017	0.364209
160	C	0.026761	0.717899	0.359995
161	C	0.037556	0.694774	0.318068
162	C	0.041378	0.728109	0.613696
163	H	0.048711	0.712511	0.582857
164	H	0.036974	0.806348	0.589851
165	H	0.023668	0.694655	0.387807
166	H	0.01255	0.788801	0.394952
167	H	0.916104	0.810147	0.328968
168	H	0.836537	0.870966	0.333379
169	H	0.970001	0.962512	0.336803
170	H	0.025876	0.036257	0.331423
171	H	0.12796	0.836862	0.326279
172	H	0.189022	0.916883	0.325979
173	H	0.190993	0.042832	0.591993
174	H	0.284806	0.055273	0.585541
175	H	0.208522	0.010067	0.395864
176	H	0.302644	0.022104	0.389276
177	H	0.159257	0.1277	0.337942
178	H	0.079588	0.188478	0.341816
179	H	0.806742	0.081851	0.341833
180	H	0.867878	0.161958	0.341713
181	H	0.966976	0.193445	0.413208
182	H	0.955888	0.287432	0.419946
183	H	0.975219	0.208494	0.606565
184	H	0.964361	0.30271	0.613363
185	H	0.788987	0.977678	0.605572
186	H	0.694808	0.96586	0.611971
187	H	0.709591	0.955298	0.418487
188	H	0.803513	0.967294	0.412155
189	C	0.953231	0.362304	0.354323
190	H	0.943619	0.373914	0.38852
191	H	0.920191	0.374749	0.666489
192	C	0.634972	0.953376	0.352681
193	H	0.623336	0.942826	0.386681
194	H	0.622486	0.920928	0.664217
195	C	0.043673	0.636452	0.313995
196	H	0.073831	0.623536	0.337832
197	H	0.057765	0.625715	0.614082
198	C	0.360905	0.046168	0.316332
199	H	0.373961	0.075181	0.34111
200	H	0.371752	0.061667	0.616884
201	C	0.995443	0.55374	0.658908
202	N	0.990764	0.531399	0.36654
203	C	0.992726	0.478382	0.373515
204	C	0.999621	0.444437	0.336663
205	N	0.004158	0.466742	0.629054
206	C	0.002276	0.519981	0.621657
207	H	0.989448	0.46377	0.405114
208	N	0.00626	0.540729	0.578257
209	O	0.969542	0.523036	0.554275
210	O	0.049523	0.527334	0.560957
211	N	0.002871	0.388863	0.339944
212	H	0.033332	0.37939	0.361228
213	N	0.992603	0.609475	0.656756
214	H	0.964269	0.6202	0.633891
215	C	0.443405	0.997103	0.659318
216	N	0.466148	0.991271	0.366684
217	C	0.519253	0.992773	0.373285
218	C	0.552856	0.000403	0.336304
219	N	0.530149	0.00609	0.628954
220	C	0.476814	0.004684	0.621936
221	H	0.534172	0.988672	0.404711
222	N	0.455605	0.009859	0.578783
223	O	0.472769	0.973633	0.554036
224	O	0.469128	0.053454	0.562129
225	N	0.608482	0.003395	0.339248
226	H	0.618265	0.033346	0.360955
227	N	0.387632	0.994623	0.657519
228	H	0.376462	0.967187	0.63402
229	C	0.918397	0.850483	0.66466
230	C	0.875025	0.883604	0.667132
231	C	0.893286	0.935817	0.66934
232	N	0.946863	0.932366	0.668484
233	C	0.964183	0.881651	0.665669
234	C	0.016907	0.861877	0.663601
235	C	0.063323	0.893679	0.663514
236	N	0.066474	0.947069	0.66518
237	C	0.117164	0.964188	0.663694
238	C	0.148625	0.918785	0.661063
239	C	0.115461	0.87532	0.661276
240	C	0.135577	0.017327	0.66447
241	C	0.102581	0.062885	0.667125
242	N	0.048994	0.066315	0.667511
243	C	0.031644	0.116987	0.670665
244	C	0.077382	0.148166	0.672434
245	C	0.120788	0.11506	0.670249
246	C	0.978916	0.136769	0.672201
247	C	0.932479	0.105056	0.671958
248	N	0.929389	0.051657	0.670789
249	C	0.87869	0.034573	0.671981
250	C	0.84717	0.079991	0.67384
251	C	0.880338	0.123467	0.673683
252	C	0.860343	0.981426	0.671645
253	C	0.804706	0.97336	0.674949
254	C	0.780948	0.96664	0.71715
255	C	0.725878	0.959465	0.72081
256	C	0.693397	0.959109	0.682443
257	C	0.717435	0.965757	0.973592
258	C	0.772557	0.972702	0.969801
259	C	0.971979	0.192515	0.675941
260	C	0.966214	0.216155	0.718289
261	C	0.959582	0.271261	0.722186
262	C	0.958823	0.303891	0.683915
263	C	0.964635	0.279987	0.974931
264	C	0.971022	0.224836	0.970907
265	C	0.191251	0.025492	0.661209
266	C	0.21417	0.038775	0.953107
267	C	0.269199	0.046167	0.94938
268	C	0.30254	0.040103	0.653539
269	C	0.279393	0.026882	0.694973
270	C	0.224294	0.019819	0.698867
271	C	0.023845	0.806094	0.659724
272	C	0.03434	0.783143	0.951072
273	C	0.020231	0.773017	0.697541
274	C	0.026761	0.717899	0.693328
275	C	0.037556	0.694774	0.6514
276	C	0.041378	0.728109	0.947029
277	H	0.048711	0.712511	0.916189
278	H	0.036974	0.806348	0.923187
279	H	0.023668	0.694655	0.72114
280	H	0.01255	0.788801	0.728284
281	H	0.916104	0.810147	0.662302
282	H	0.836537	0.870966	0.666712
283	H	0.970001	0.962512	0.670136
284	H	0.025876	0.036257	0.664757
285	H	0.12796	0.836862	0.659611
286	H	0.189022	0.916883	0.659311
287	H	0.190993	0.042832	0.925325
288	H	0.284806	0.055273	0.918874
289	H	0.208522	0.010067	0.729197
290	H	0.302644	0.022104	0.722609
291	H	0.159257	0.1277	0.671275
292	H	0.079588	0.188478	0.675149
293	H	0.806742	0.081851	0.675165
294	H	0.867878	0.161958	0.675045
295	H	0.966976	0.193445	0.74654
296	H	0.955888	0.287432	0.753278
297	H	0.975219	0.208494	0.939898
298	H	0.964361	0.30271	0.946696
299	H	0.788987	0.977678	0.938905
300	H	0.694808	0.96586	0.945303
301	H	0.709591	0.955298	0.751819
302	H	0.803513	0.967294	0.745488
303	C	0.953231	0.362304	0.687656
304	H	0.943619	0.373914	0.721853
305	H	0.920191	0.374749	0.999824
306	C	0.634972	0.953376	0.686014
307	H	0.623336	0.942826	0.720014
308	H	0.622486	0.920928	0.99755
309	C	0.043673	0.636452	0.647327
310	H	0.073831	0.623536	0.671165
311	H	0.057765	0.625715	0.947415
312	C	0.360905	0.046168	0.649665
313	H	0.373961	0.075181	0.674443
314	H	0.371752	0.061667	0.950216
315	C	0.995443	0.55374	0.99224
316	N	0.990764	0.531399	0.699873
317	C	0.992726	0.478382	0.706851
318	C	0.999621	0.444437	0.669996
319	N	0.004158	0.466742	0.962387
320	C	0.002276	0.519981	0.954989
321	H	0.989448	0.46377	0.738446
322	N	0.00626	0.540729	0.911589
323	O	0.969542	0.523036	0.887608
324	O	0.049523	0.527334	0.894289
325	N	0.002871	0.388863	0.673277
326	H	0.033332	0.37939	0.69456
327	N	0.992603	0.609475	0.990092
328	H	0.964269	0.6202	0.967223
329	C	0.443405	0.997103	0.99265
330	N	0.466148	0.991271	0.700016
331	C	0.519253	0.992773	0.706618
332	C	0.552856	0.000403	0.669636
333	N	0.530149	0.00609	0.962287
334	C	0.476814	0.004684	0.955269
335	H	0.534172	0.988672	0.738043
336	N	0.455605	0.009859	0.912116
337	O	0.472769	0.973633	0.887368
338	O	0.469128	0.053454	0.895462
339	N	0.608482	0.003395	0.672584
340	H	0.618265	0.033346	0.694287
341	N	0.387632	0.994623	0.990852
342	H	0.376462	0.967187	0.967356
