data_C180H108N18_2018-02-15_10:41:42
#******************************************
#
# CIF file created by Zeo++
# Zeo++ is an open source package to
# analyze microporous materials
#
#*******************************************

_cell_length_a		29.9236   
_cell_length_b		29.9235   
_cell_length_c		29.8176   
_cell_angle_alpha		90   
_cell_angle_beta		90   
_cell_angle_gamma		120   

_symmetry_space_group_name_H-M		'P1'
_symmetry_Int_Tables_number		1
_symmetry_cell_setting		Monoclinic

loop_
_symmetry_equiv_pos_as_xyz
'+x,+y,+z'

loop_
_atom_site_label
_atom_site_type_symbol
_atom_site_fract_x
_atom_site_fract_y
_atom_site_fract_z
1	C	0.031729	0.516629	0.046815
2	N	0.029887	0.515707	0.300489
3	H	0.051384	0.526458	0.076593
4	C	0.031729	0.516629	0.380148
5	N	0.029887	0.515707	0.633824
6	H	0.051384	0.526458	0.409926
7	C	0.031729	0.516629	0.713481
8	N	0.029887	0.515707	0.967157
9	H	0.051384	0.526458	0.743259
10	C	0.058247	0.529888	0.005516
11	C	0.058247	0.529888	0.33885
12	C	0.058247	0.529888	0.672184
13	C	0.281537	0.641532	0.001831
14	C	0.311327	0.616534	0.001791
15	C	0.366114	0.641532	0.001821
16	C	0.391114	0.69632	0.001788
17	C	0.366115	0.72611	0.001828
18	C	0.311327	0.696324	0.001821
19	C	0.394556	0.613088	0.002046
20	C	0.369449	0.558	0.002298
21	C	0.396387	0.530598	0.002992
22	C	0.450605	0.557043	0.003382
23	C	0.477047	0.611259	0.002995
24	C	0.449647	0.638198	0.002301
25	C	0.224653	0.613092	0.002053
26	C	0.194669	0.558	0.002311
27	C	0.140332	0.530602	0.002998
28	C	0.112556	0.557043	0.003384
29	C	0.140331	0.611259	0.002988
30	C	0.19467	0.638198	0.002294
31	C	0.394558	0.782997	0.002056
32	C	0.369449	0.812976	0.002287
33	C	0.396388	0.867316	0.002975
34	C	0.450605	0.895092	0.003373
35	C	0.477047	0.867316	0.002998
36	C	0.449646	0.812976	0.002311
37	H	0.12117	0.491068	0.003544
38	H	0.211187	0.535468	0.002257
39	H	0.121171	0.631634	0.003507
40	H	0.211187	0.677249	0.002197
41	H	0.330399	0.79646	0.002197
42	H	0.376016	0.886479	0.0035
43	H	0.472181	0.79646	0.002264
44	H	0.516582	0.886479	0.003546
45	H	0.472181	0.677249	0.002234
46	H	0.51658	0.63163	0.003529
47	H	0.376014	0.491064	0.00352
48	H	0.330399	0.535468	0.00222
49	H	0.29198	0.577842	0.001704
50	H	0.291982	0.715668	0.001791
51	H	0.429805	0.715668	0.001694
52	C	0.727642	0.364585	0.001825
53	C	0.697853	0.389585	0.001784
54	C	0.643066	0.364586	0.001818
55	C	0.618065	0.309797	0.001794
56	C	0.643065	0.280009	0.001828
57	C	0.697854	0.309796	0.001811
58	C	0.614623	0.39303	0.002046
59	C	0.639732	0.448119	0.002301
60	C	0.612792	0.475521	0.002992
61	C	0.558575	0.449076	0.003391
62	C	0.532132	0.39486	0.002998
63	C	0.559534	0.367921	0.002298
64	C	0.784527	0.393027	0.002049
65	C	0.81451	0.448119	0.002308
66	C	0.868849	0.475517	0.002998
67	C	0.896623	0.449076	0.003391
68	C	0.86885	0.39486	0.002985
69	C	0.814509	0.36792	0.002291
70	C	0.614623	0.223123	0.002053
71	C	0.63973	0.19314	0.002298
72	C	0.612791	0.138802	0.002998
73	C	0.558571	0.111027	0.003393
74	C	0.532129	0.138802	0.002988
75	C	0.559533	0.193141	0.002301
76	H	0.888008	0.515051	0.00355
77	H	0.797992	0.470651	0.002254
78	H	0.888011	0.374485	0.003511
79	H	0.797991	0.328869	0.002194
80	H	0.67878	0.209657	0.00222
81	H	0.633163	0.11964	0.003529
82	H	0.536996	0.209658	0.002234
83	H	0.492596	0.119641	0.003532
84	H	0.536997	0.32887	0.00222
85	H	0.492598	0.374487	0.00353
86	H	0.633164	0.515055	0.003527
87	H	0.678782	0.470651	0.002224
88	H	0.7172	0.428277	0.001691
89	H	0.717199	0.290451	0.001768
90	H	0.579375	0.290452	0.001724
91	C	0.53142	0.476231	0.00552
92	C	0.518156	0.48949	0.046817
93	C	0.491016	0.516625	0.046814
94	C	0.47776	0.529888	0.005515
95	N	0.491944	0.515711	0.300489
96	H	0.481185	0.52645	0.076592
97	H	0.527979	0.479661	0.076596
98	N	0.517245	0.490412	0.300491
99	C	0.531417	0.056718	0.005519
100	C	0.518164	0.030193	0.046815
101	C	0.491027	0.975916	0.04681
102	C	0.47776	0.949402	0.005509
103	N	0.491932	0.977764	0.300484
104	H	0.481205	0.956259	0.076586
105	H	0.527996	0.049843	0.076595
106	N	0.51723	0.028364	0.300489
107	C	0.950931	0.476231	0.00552
108	C	0.977454	0.48949	0.046817
109	H	0.957801	0.479665	0.076596
110	N	0.979287	0.490408	0.300491
111	C	0.281537	0.641532	0.335164
112	C	0.311327	0.616534	0.335123
113	C	0.366114	0.641532	0.335153
114	C	0.391114	0.69632	0.33512
115	C	0.366115	0.72611	0.335163
116	C	0.311327	0.696324	0.335153
117	C	0.394556	0.613088	0.335379
118	C	0.369449	0.558	0.335634
119	C	0.396387	0.530598	0.336325
120	C	0.450605	0.557043	0.336714
121	C	0.477047	0.611259	0.336332
122	C	0.449647	0.638198	0.335634
123	C	0.224653	0.613092	0.335386
124	C	0.194669	0.558	0.335644
125	C	0.140332	0.530602	0.336335
126	C	0.112556	0.557043	0.336717
127	C	0.140331	0.611259	0.336322
128	C	0.19467	0.638198	0.335627
129	C	0.394558	0.782997	0.335389
130	C	0.369449	0.812976	0.335621
131	C	0.396388	0.867316	0.336308
132	C	0.450605	0.895092	0.336707
133	C	0.477047	0.867316	0.336332
134	C	0.449646	0.812976	0.335644
135	H	0.12117	0.491068	0.336878
136	H	0.211187	0.535468	0.33559
137	H	0.121171	0.631634	0.336841
138	H	0.211187	0.677249	0.33553
139	H	0.330399	0.79646	0.33553
140	H	0.376016	0.886479	0.336831
141	H	0.472181	0.79646	0.335597
142	H	0.516582	0.886479	0.336878
143	H	0.472181	0.677249	0.335567
144	H	0.51658	0.63163	0.336862
145	H	0.376014	0.491064	0.336851
146	H	0.330399	0.535468	0.335554
147	H	0.29198	0.577842	0.335039
148	H	0.291982	0.715668	0.335124
149	H	0.429805	0.715668	0.335027
150	C	0.727642	0.364585	0.335158
151	C	0.697853	0.389585	0.335117
152	C	0.643066	0.364586	0.335153
153	C	0.618065	0.309797	0.335128
154	C	0.643065	0.280009	0.335161
155	C	0.697854	0.309796	0.335144
156	C	0.614623	0.39303	0.335379
157	C	0.639732	0.448119	0.335634
158	C	0.612792	0.475521	0.336325
159	C	0.558575	0.449076	0.336724
160	C	0.532132	0.39486	0.336332
161	C	0.559534	0.367921	0.335631
162	C	0.784527	0.393027	0.335383
163	C	0.81451	0.448119	0.335641
164	C	0.868849	0.475517	0.336332
165	C	0.896623	0.449076	0.336724
166	C	0.86885	0.39486	0.336318
167	C	0.814509	0.36792	0.335624
168	C	0.614623	0.223123	0.335389
169	C	0.63973	0.19314	0.335631
170	C	0.612791	0.138802	0.336335
171	C	0.558571	0.111027	0.336727
172	C	0.532129	0.138802	0.336322
173	C	0.559533	0.193141	0.335634
174	H	0.888008	0.515051	0.336885
175	H	0.797992	0.470651	0.33559
176	H	0.888011	0.374485	0.336845
177	H	0.797991	0.328869	0.335527
178	H	0.67878	0.209657	0.335554
179	H	0.633163	0.11964	0.336862
180	H	0.536996	0.209658	0.335567
181	H	0.492596	0.119641	0.336865
182	H	0.536997	0.32887	0.335554
183	H	0.492598	0.374487	0.336862
184	H	0.633164	0.515055	0.336862
185	H	0.678782	0.470651	0.335557
186	H	0.7172	0.428277	0.335025
187	H	0.717199	0.290451	0.335101
188	H	0.579375	0.290452	0.335057
189	C	0.53142	0.476231	0.338854
190	C	0.518156	0.48949	0.380151
191	C	0.491016	0.516625	0.380148
192	C	0.47776	0.529888	0.338847
193	N	0.491944	0.515711	0.63382
194	H	0.481185	0.52645	0.409926
195	H	0.527979	0.479661	0.409929
196	N	0.517245	0.490412	0.633824
197	C	0.531417	0.056718	0.338854
198	C	0.518164	0.030193	0.380148
199	C	0.491027	0.975916	0.380145
200	C	0.47776	0.949402	0.338844
201	N	0.491932	0.977764	0.633817
202	H	0.481205	0.956259	0.409919
203	H	0.527996	0.049843	0.409929
204	N	0.51723	0.028364	0.633824
205	C	0.950931	0.476231	0.338854
206	C	0.977454	0.48949	0.380151
207	H	0.957801	0.479665	0.409929
208	N	0.979287	0.490408	0.633824
209	C	0.281537	0.641532	0.668498
210	C	0.311327	0.616534	0.668458
211	C	0.366114	0.641532	0.668488
212	C	0.391114	0.69632	0.668454
213	C	0.366115	0.72611	0.668495
214	C	0.311327	0.696324	0.668488
215	C	0.394556	0.613088	0.668713
216	C	0.369449	0.558	0.668967
217	C	0.396387	0.530598	0.669658
218	C	0.450605	0.557043	0.670047
219	C	0.477047	0.611259	0.669662
220	C	0.449647	0.638198	0.668967
221	C	0.224653	0.613092	0.668719
222	C	0.194669	0.558	0.668978
223	C	0.140332	0.530602	0.669665
224	C	0.112556	0.557043	0.670051
225	C	0.140331	0.611259	0.669655
226	C	0.19467	0.638198	0.668961
227	C	0.394558	0.782997	0.668723
228	C	0.369449	0.812976	0.668954
229	C	0.396388	0.867316	0.669642
230	C	0.450605	0.895092	0.670041
231	C	0.477047	0.867316	0.669665
232	C	0.449646	0.812976	0.668978
233	H	0.12117	0.491068	0.670212
234	H	0.211187	0.535468	0.668924
235	H	0.121171	0.631634	0.670175
236	H	0.211187	0.677249	0.668864
237	H	0.330399	0.79646	0.668864
238	H	0.376016	0.886479	0.670165
239	H	0.472181	0.79646	0.668931
240	H	0.516582	0.886479	0.670212
241	H	0.472181	0.677249	0.6689
242	H	0.51658	0.63163	0.670195
243	H	0.376014	0.491064	0.670185
244	H	0.330399	0.535468	0.668887
245	H	0.29198	0.577842	0.668371
246	H	0.291982	0.715668	0.668458
247	H	0.429805	0.715668	0.66836
248	C	0.727642	0.364585	0.668491
249	C	0.697853	0.389585	0.668451
250	C	0.643066	0.364586	0.668488
251	C	0.618065	0.309797	0.668461
252	C	0.643065	0.280009	0.668495
253	C	0.697854	0.309796	0.668478
254	C	0.614623	0.39303	0.668713
255	C	0.639732	0.448119	0.668967
256	C	0.612792	0.475521	0.669658
257	C	0.558575	0.449076	0.670057
258	C	0.532132	0.39486	0.669665
259	C	0.559534	0.367921	0.668964
260	C	0.784527	0.393027	0.668716
261	C	0.81451	0.448119	0.668974
262	C	0.868849	0.475517	0.669665
263	C	0.896623	0.449076	0.670057
264	C	0.86885	0.39486	0.669652
265	C	0.814509	0.36792	0.668957
266	C	0.614623	0.223123	0.668723
267	C	0.63973	0.19314	0.668964
268	C	0.612791	0.138802	0.669665
269	C	0.558571	0.111027	0.670061
270	C	0.532129	0.138802	0.669655
271	C	0.559533	0.193141	0.668967
272	H	0.888008	0.515051	0.670215
273	H	0.797992	0.470651	0.668924
274	H	0.888011	0.374485	0.670178
275	H	0.797991	0.328869	0.66886
276	H	0.67878	0.209657	0.668887
277	H	0.633163	0.11964	0.670195
278	H	0.536996	0.209658	0.6689
279	H	0.492596	0.119641	0.670198
280	H	0.536997	0.32887	0.668887
281	H	0.492598	0.374487	0.670195
282	H	0.633164	0.515055	0.670195
283	H	0.678782	0.470651	0.66889
284	H	0.7172	0.428277	0.668357
285	H	0.717199	0.290451	0.668434
286	H	0.579375	0.290452	0.668391
287	C	0.53142	0.476231	0.672187
288	C	0.518156	0.48949	0.713481
289	C	0.491016	0.516625	0.713481
290	C	0.47776	0.529888	0.67218
291	N	0.491944	0.515711	0.967154
292	H	0.481185	0.52645	0.743259
293	H	0.527979	0.479661	0.743263
294	N	0.517245	0.490412	0.967157
295	C	0.531417	0.056718	0.672187
296	C	0.518164	0.030193	0.713481
297	C	0.491027	0.975916	0.713475
298	C	0.47776	0.949402	0.672177
299	N	0.491932	0.977764	0.967151
300	H	0.481205	0.956259	0.743252
301	H	0.527996	0.049843	0.743263
302	N	0.51723	0.028364	0.967154
303	C	0.950931	0.476231	0.672187
304	C	0.977454	0.48949	0.713485
305	H	0.957801	0.479665	0.743263
306	N	0.979287	0.490408	0.967157
