data_C198H126_2018-02-15_10:41:44
#******************************************
#
# CIF file created by Zeo++
# Zeo++ is an open source package to
# analyze microporous materials
#
#*******************************************

_cell_length_a		30.0416   
_cell_length_b		30.0417   
_cell_length_c		29.8422   
_cell_angle_alpha		90   
_cell_angle_beta		90   
_cell_angle_gamma		120   

_symmetry_space_group_name_H-M		'P1'
_symmetry_Int_Tables_number		1
_symmetry_cell_setting		Monoclinic

loop_
_symmetry_equiv_pos_as_xyz
'+x,+y,+z'

loop_
_atom_site_label
_atom_site_type_symbol
_atom_site_fract_x
_atom_site_fract_y
_atom_site_fract_z
1	C	0.031031	0.516177	0.04369
2	C	0.031012	0.516166	0.295399
3	C	0.031031	0.516177	0.377023
4	C	0.031012	0.516166	0.628733
5	C	0.031031	0.516177	0.710356
6	C	0.031012	0.516166	0.962066
7	C	0.058524	0.529922	0.002872
8	H	0.050153	0.525736	0.265423
9	H	0.050189	0.525755	0.073657
10	C	0.058524	0.529922	0.336205
11	H	0.050153	0.525736	0.598755
12	H	0.050189	0.525755	0.40699
13	C	0.058524	0.529922	0.669541
14	H	0.050153	0.525736	0.932092
15	H	0.050189	0.525755	0.740323
16	C	0.281163	0.641242	0.002623
17	C	0.310804	0.616324	0.002619
18	C	0.365364	0.641242	0.002623
19	C	0.390284	0.695803	0.002619
20	C	0.365363	0.725441	0.002623
21	C	0.310805	0.695803	0.002619
22	C	0.393689	0.612914	0.002666
23	C	0.368662	0.558046	0.002697
24	C	0.395488	0.53076	0.002783
25	C	0.449503	0.557104	0.002844
26	C	0.475845	0.611116	0.002783
27	C	0.448561	0.637944	0.002697
28	C	0.224511	0.612914	0.002665
29	C	0.194669	0.558046	0.002697
30	C	0.140557	0.53076	0.002783
31	C	0.112887	0.557104	0.002844
32	C	0.140556	0.611116	0.002783
33	C	0.194669	0.637944	0.002697
34	C	0.393689	0.782093	0.002665
35	C	0.368661	0.811935	0.002697
36	C	0.395488	0.866047	0.002783
37	C	0.449501	0.893717	0.002845
38	C	0.475844	0.866047	0.002783
39	C	0.44856	0.811935	0.002697
40	H	0.121458	0.491389	0.002797
41	H	0.211103	0.535595	0.002657
42	H	0.121458	0.631391	0.002796
43	H	0.211102	0.676827	0.002656
44	H	0.329778	0.795504	0.002656
45	H	0.375215	0.885146	0.002796
46	H	0.471011	0.795504	0.002656
47	H	0.515216	0.885146	0.002797
48	H	0.47101	0.676827	0.002657
49	H	0.515218	0.631391	0.002797
50	H	0.375217	0.491389	0.002797
51	H	0.329778	0.535595	0.002657
52	H	0.291544	0.577803	0.002629
53	H	0.291543	0.71506	0.002629
54	H	0.428802	0.71506	0.002629
55	C	0.726766	0.364043	0.002623
56	C	0.697125	0.388963	0.002619
57	C	0.642562	0.364042	0.002626
58	C	0.617646	0.309483	0.002619
59	C	0.642564	0.279842	0.002623
60	C	0.697123	0.309483	0.002619
61	C	0.614238	0.392369	0.002675
62	C	0.639266	0.447237	0.002712
63	C	0.612438	0.474523	0.002809
64	C	0.558426	0.448179	0.002875
65	C	0.532083	0.394168	0.002808
66	C	0.559366	0.36734	0.002712
67	C	0.783417	0.392369	0.002675
68	C	0.813258	0.447237	0.002712
69	C	0.867371	0.474523	0.002809
70	C	0.895039	0.448179	0.002875
71	C	0.867371	0.394168	0.002808
72	C	0.81326	0.36734	0.002712
73	C	0.614238	0.22319	0.002675
74	C	0.639265	0.193347	0.002712
75	C	0.612439	0.139236	0.002808
76	C	0.558426	0.111566	0.002875
77	C	0.532084	0.139236	0.002809
78	C	0.559369	0.193347	0.002712
79	H	0.886471	0.513894	0.00282
80	H	0.796825	0.469688	0.002666
81	H	0.88647	0.373894	0.00282
82	H	0.796824	0.328456	0.002665
83	H	0.678149	0.209782	0.002665
84	H	0.632711	0.120137	0.00282
85	H	0.536918	0.209782	0.002665
86	H	0.492712	0.120137	0.00282
87	H	0.536918	0.328456	0.002666
88	H	0.49271	0.373894	0.00282
89	H	0.632709	0.513894	0.00282
90	H	0.678149	0.469688	0.002666
91	H	0.716383	0.427481	0.002633
92	H	0.716383	0.290223	0.002633
93	H	0.579126	0.290223	0.002633
94	C	0.51749	0.489118	0.043698
95	C	0.490431	0.516177	0.043689
96	C	0.476683	0.529922	0.002872
97	C	0.490439	0.516166	0.295398
98	C	0.517497	0.48911	0.295407
99	C	0.531244	0.475361	0.002889
100	H	0.480868	0.525736	0.265423
101	H	0.480852	0.525755	0.073657
102	H	0.527062	0.479543	0.073671
103	H	0.527073	0.479532	0.265438
104	C	0.51749	0.029694	0.043698
105	C	0.49043	0.975576	0.04369
106	C	0.476683	0.948082	0.002872
107	C	0.490438	0.975591	0.295399
108	C	0.517497	0.029708	0.295407
109	C	0.531245	0.057204	0.002889
110	H	0.480867	0.956449	0.265423
111	H	0.48085	0.956415	0.073658
112	H	0.527063	0.048839	0.073672
113	H	0.527074	0.048862	0.265438
114	C	0.976913	0.489118	0.043698
115	C	0.976899	0.48911	0.295407
116	C	0.949404	0.475361	0.002889
117	H	0.957766	0.479543	0.073672
118	H	0.957744	0.479532	0.265438
119	C	0.281163	0.641242	0.335957
120	C	0.310804	0.616324	0.335953
121	C	0.365364	0.641242	0.335957
122	C	0.390284	0.695803	0.335953
123	C	0.365363	0.725441	0.335953
124	C	0.310805	0.695803	0.335953
125	C	0.393689	0.612914	0.336
126	C	0.368662	0.558046	0.33603
127	C	0.395488	0.53076	0.336118
128	C	0.449503	0.557104	0.336178
129	C	0.475845	0.611116	0.336118
130	C	0.448561	0.637944	0.33603
131	C	0.224511	0.612914	0.336
132	C	0.194669	0.558046	0.33603
133	C	0.140557	0.53076	0.336118
134	C	0.112887	0.557104	0.336178
135	C	0.140556	0.611116	0.336118
136	C	0.194669	0.637944	0.33603
137	C	0.393689	0.782093	0.336
138	C	0.368661	0.811935	0.33603
139	C	0.395488	0.866047	0.336118
140	C	0.449501	0.893717	0.336178
141	C	0.475844	0.866047	0.336118
142	C	0.44856	0.811935	0.33603
143	H	0.121458	0.491389	0.336131
144	H	0.211103	0.535595	0.33599
145	H	0.121458	0.631391	0.336131
146	H	0.211102	0.676827	0.33599
147	H	0.329778	0.795504	0.33599
148	H	0.375215	0.885146	0.336131
149	H	0.471011	0.795504	0.33599
150	H	0.515216	0.885146	0.336131
151	H	0.47101	0.676827	0.33599
152	H	0.515218	0.631391	0.336131
153	H	0.375217	0.491389	0.336131
154	H	0.329778	0.535595	0.33599
155	H	0.291544	0.577803	0.335963
156	H	0.291543	0.71506	0.335963
157	H	0.428802	0.71506	0.335963
158	C	0.726766	0.364043	0.335957
159	C	0.697125	0.388963	0.335953
160	C	0.642562	0.364042	0.335957
161	C	0.617646	0.309483	0.335953
162	C	0.642564	0.279842	0.335957
163	C	0.697123	0.309483	0.335953
164	C	0.614238	0.392369	0.33601
165	C	0.639266	0.447237	0.336047
166	C	0.612438	0.474523	0.336141
167	C	0.558426	0.448179	0.336208
168	C	0.532083	0.394168	0.336141
169	C	0.559366	0.36734	0.336047
170	C	0.783417	0.392369	0.336007
171	C	0.813258	0.447237	0.336047
172	C	0.867371	0.474523	0.336141
173	C	0.895039	0.448179	0.336208
174	C	0.867371	0.394168	0.336141
175	C	0.81326	0.36734	0.336047
176	C	0.614238	0.22319	0.33601
177	C	0.639265	0.193347	0.336047
178	C	0.612439	0.139236	0.336141
179	C	0.558426	0.111566	0.336208
180	C	0.532084	0.139236	0.336141
181	C	0.559369	0.193347	0.336047
182	H	0.886471	0.513894	0.336154
183	H	0.796825	0.469688	0.336
184	H	0.88647	0.373894	0.336154
185	H	0.796824	0.328456	0.336
186	H	0.678149	0.209782	0.336
187	H	0.632711	0.120137	0.336154
188	H	0.536918	0.209782	0.336
189	H	0.492712	0.120137	0.336154
190	H	0.536918	0.328456	0.336
191	H	0.49271	0.373894	0.336154
192	H	0.632709	0.513894	0.336154
193	H	0.678149	0.469688	0.336
194	H	0.716383	0.427481	0.335963
195	H	0.716383	0.290223	0.335963
196	H	0.579126	0.290223	0.335963
197	C	0.51749	0.489118	0.377033
198	C	0.490431	0.516177	0.377023
199	C	0.476683	0.529922	0.336205
200	C	0.490439	0.516166	0.628733
201	C	0.517497	0.48911	0.62874
202	C	0.531244	0.475361	0.336221
203	H	0.480868	0.525736	0.598755
204	H	0.480852	0.525755	0.40699
205	H	0.527062	0.479543	0.407004
206	H	0.527073	0.479532	0.598772
207	C	0.51749	0.029694	0.377033
208	C	0.49043	0.975576	0.377023
209	C	0.476683	0.948082	0.336205
210	C	0.490438	0.975591	0.628733
211	C	0.517497	0.029708	0.62874
212	C	0.531245	0.057204	0.336221
213	H	0.480867	0.956449	0.598759
214	H	0.48085	0.956415	0.40699
215	H	0.527063	0.048839	0.407007
216	H	0.527074	0.048862	0.598772
217	C	0.976913	0.489118	0.377033
218	C	0.976899	0.48911	0.62874
219	C	0.949404	0.475361	0.336221
220	H	0.957766	0.479543	0.407007
221	H	0.957744	0.479532	0.598772
222	C	0.281163	0.641242	0.66929
223	C	0.310804	0.616324	0.669286
224	C	0.365364	0.641242	0.66929
225	C	0.390284	0.695803	0.669286
226	C	0.365363	0.725441	0.66929
227	C	0.310805	0.695803	0.669286
228	C	0.393689	0.612914	0.669333
229	C	0.368662	0.558046	0.669363
230	C	0.395488	0.53076	0.66945
231	C	0.449503	0.557104	0.669511
232	C	0.475845	0.611116	0.66945
233	C	0.448561	0.637944	0.669363
234	C	0.224511	0.612914	0.669333
235	C	0.194669	0.558046	0.669363
236	C	0.140557	0.53076	0.66945
237	C	0.112887	0.557104	0.669511
238	C	0.140556	0.611116	0.66945
239	C	0.194669	0.637944	0.669363
240	C	0.393689	0.782093	0.669333
241	C	0.368661	0.811935	0.669363
242	C	0.395488	0.866047	0.66945
243	C	0.449501	0.893717	0.669511
244	C	0.475844	0.866047	0.66945
245	C	0.44856	0.811935	0.669363
246	H	0.121458	0.491389	0.669464
247	H	0.211103	0.535595	0.669323
248	H	0.121458	0.631391	0.669464
249	H	0.211102	0.676827	0.669323
250	H	0.329778	0.795504	0.669323
251	H	0.375215	0.885146	0.669464
252	H	0.471011	0.795504	0.669323
253	H	0.515216	0.885146	0.669464
254	H	0.47101	0.676827	0.669323
255	H	0.515218	0.631391	0.669464
256	H	0.375217	0.491389	0.669464
257	H	0.329778	0.535595	0.669323
258	H	0.291544	0.577803	0.669296
259	H	0.291543	0.71506	0.669296
260	H	0.428802	0.71506	0.669296
261	C	0.726766	0.364043	0.66929
262	C	0.697125	0.388963	0.669286
263	C	0.642562	0.364042	0.66929
264	C	0.617646	0.309483	0.669286
265	C	0.642564	0.279842	0.66929
266	C	0.697123	0.309483	0.669286
267	C	0.614238	0.392369	0.669343
268	C	0.639266	0.447237	0.66938
269	C	0.612438	0.474523	0.669477
270	C	0.558426	0.448179	0.669541
271	C	0.532083	0.394168	0.669477
272	C	0.559366	0.36734	0.66938
273	C	0.783417	0.392369	0.669343
274	C	0.813258	0.447237	0.66938
275	C	0.867371	0.474523	0.669477
276	C	0.895039	0.448179	0.669544
277	C	0.867371	0.394168	0.669477
278	C	0.81326	0.36734	0.66938
279	C	0.614238	0.22319	0.669343
280	C	0.639265	0.193347	0.66938
281	C	0.612439	0.139236	0.669477
282	C	0.558426	0.111566	0.669544
283	C	0.532084	0.139236	0.669477
284	C	0.559369	0.193347	0.66938
285	H	0.886471	0.513894	0.669487
286	H	0.796825	0.469688	0.669333
287	H	0.88647	0.373894	0.669487
288	H	0.796824	0.328456	0.669333
289	H	0.678149	0.209782	0.669333
290	H	0.632711	0.120137	0.669487
291	H	0.536918	0.209782	0.669333
292	H	0.492712	0.120137	0.669487
293	H	0.536918	0.328456	0.669333
294	H	0.49271	0.373894	0.669487
295	H	0.632709	0.513894	0.669487
296	H	0.678149	0.469688	0.669333
297	H	0.716383	0.427481	0.669296
298	H	0.716383	0.290223	0.669296
299	H	0.579126	0.290223	0.669296
300	C	0.51749	0.489118	0.710366
301	C	0.490431	0.516177	0.710356
302	C	0.476683	0.529922	0.669538
303	C	0.490439	0.516166	0.962066
304	C	0.517497	0.48911	0.962076
305	C	0.531244	0.475361	0.669558
306	H	0.480868	0.525736	0.932092
307	H	0.480852	0.525755	0.740323
308	H	0.527062	0.479543	0.74034
309	H	0.527073	0.479532	0.932105
310	C	0.51749	0.029694	0.710366
311	C	0.49043	0.975576	0.710359
312	C	0.476683	0.948082	0.669541
313	C	0.490438	0.975591	0.962066
314	C	0.517497	0.029708	0.962076
315	C	0.531245	0.057204	0.669558
316	H	0.480867	0.956449	0.932092
317	H	0.48085	0.956415	0.740327
318	H	0.527063	0.048839	0.74034
319	H	0.527074	0.048862	0.932105
320	C	0.976913	0.489118	0.710366
321	C	0.976899	0.48911	0.962076
322	C	0.949404	0.475361	0.669558
323	H	0.957766	0.479543	0.74034
324	H	0.957744	0.479532	0.932105
