data_C198H126O18_2018-02-15_10:41:45
#******************************************
#
# CIF file created by Zeo++
# Zeo++ is an open source package to
# analyze microporous materials
#
#*******************************************

_cell_length_a		30.0592   
_cell_length_b		30.0592   
_cell_length_c		29.8218   
_cell_angle_alpha		90   
_cell_angle_beta		90   
_cell_angle_gamma		120   

_symmetry_space_group_name_H-M		'P1'
_symmetry_Int_Tables_number		1
_symmetry_cell_setting		Monoclinic

loop_
_symmetry_equiv_pos_as_xyz
'+x,+y,+z'

loop_
_atom_site_label
_atom_site_type_symbol
_atom_site_fract_x
_atom_site_fract_y
_atom_site_fract_z
1	C	0.03143	0.516464	0.044568
2	C	0.0319	0.516698	0.295932
3	H	0.051879	0.526686	0.266358
4	H	0.036078	0.518788	0.110283
5	C	0.03143	0.516464	0.377901
6	C	0.0319	0.516698	0.629264
7	H	0.051879	0.526686	0.599692
8	H	0.036078	0.518788	0.443618
9	C	0.03143	0.516464	0.711234
10	C	0.0319	0.516698	0.962597
11	H	0.051879	0.526686	0.933025
12	H	0.036078	0.518788	0.776951
13	C	0.058983	0.530239	0.003626
14	O	0.058797	0.530147	0.083951
15	C	0.058983	0.530239	0.336958
16	O	0.058797	0.530147	0.417285
17	C	0.058983	0.530239	0.670295
18	O	0.058797	0.530147	0.750618
19	C	0.281701	0.641598	0.002867
20	C	0.311334	0.616694	0.002863
21	C	0.365871	0.641598	0.002867
22	C	0.390774	0.696135	0.002863
23	C	0.365871	0.725767	0.002867
24	C	0.311335	0.696135	0.002863
25	C	0.394192	0.613275	0.002883
26	C	0.369195	0.558435	0.002924
27	C	0.396012	0.531165	0.003034
28	C	0.449999	0.557471	0.003067
29	C	0.476304	0.611458	0.003034
30	C	0.449032	0.638271	0.002924
31	C	0.225058	0.613275	0.002883
32	C	0.195214	0.558435	0.002924
33	C	0.141127	0.531165	0.003032
34	C	0.113447	0.557471	0.003063
35	C	0.141128	0.611458	0.003033
36	C	0.195214	0.638271	0.002924
37	C	0.394192	0.782409	0.002883
38	C	0.369195	0.812253	0.002924
39	C	0.396011	0.86634	0.003031
40	C	0.449998	0.894022	0.003062
41	C	0.476303	0.86634	0.003032
42	C	0.449032	0.812253	0.002924
43	H	0.122038	0.491817	0.003176
44	H	0.21165	0.536009	0.002947
45	H	0.122039	0.631714	0.003175
46	H	0.211649	0.677135	0.002944
47	H	0.330333	0.795819	0.002947
48	H	0.375754	0.885428	0.003175
49	H	0.471461	0.795819	0.002947
50	H	0.515649	0.885428	0.003176
51	H	0.471461	0.677135	0.002944
52	H	0.51565	0.631714	0.003176
53	H	0.375753	0.491817	0.003175
54	H	0.330333	0.536009	0.002944
55	H	0.292083	0.578191	0.002836
56	H	0.292083	0.715384	0.00284
57	H	0.429276	0.715384	0.00284
58	C	0.727263	0.364378	0.003111
59	C	0.697626	0.389278	0.003113
60	C	0.643089	0.364378	0.003112
61	C	0.61819	0.309841	0.003113
62	C	0.643091	0.280207	0.003111
63	C	0.697626	0.309841	0.003112
64	C	0.614771	0.392701	0.003111
65	C	0.639766	0.447541	0.003082
66	C	0.612951	0.474811	0.002997
67	C	0.558962	0.448505	0.002977
68	C	0.532657	0.394518	0.002995
69	C	0.559929	0.367703	0.003082
70	C	0.783904	0.392701	0.003111
71	C	0.81375	0.447541	0.003083
72	C	0.867838	0.474811	0.002999
73	C	0.895518	0.448505	0.002981
74	C	0.867836	0.394518	0.002998
75	C	0.813749	0.367703	0.003081
76	C	0.614769	0.223563	0.003109
77	C	0.639765	0.19372	0.003082
78	C	0.612951	0.139632	0.002997
79	C	0.558963	0.11195	0.002984
80	C	0.532656	0.139632	0.003
81	C	0.55993	0.19372	0.003081
82	H	0.886926	0.514159	0.002856
83	H	0.797314	0.469967	0.003049
84	H	0.886927	0.374262	0.00286
85	H	0.797314	0.32884	0.003051
86	H	0.678629	0.210155	0.003048
87	H	0.633208	0.120544	0.00286
88	H	0.537501	0.210155	0.003047
89	H	0.493311	0.120544	0.002856
90	H	0.5375	0.32884	0.003053
91	H	0.493312	0.374262	0.00286
92	H	0.633207	0.514159	0.00286
93	H	0.678628	0.469967	0.003053
94	H	0.71688	0.427784	0.003138
95	H	0.71688	0.29059	0.003136
96	H	0.579684	0.29059	0.003137
97	C	0.518189	0.489278	0.04345
98	C	0.491007	0.51646	0.044569
99	C	0.477231	0.530239	0.003628
100	C	0.490772	0.516698	0.295933
101	C	0.517953	0.489516	0.294813
102	C	0.53173	0.475737	0.335754
103	H	0.480781	0.526689	0.266359
104	O	0.477325	0.530143	0.083953
105	H	0.528179	0.479286	0.073023
106	O	0.531634	0.475833	0.255429
107	H	0.488686	0.518784	0.110284
108	H	0.520274	0.487192	0.229098
109	C	0.518188	0.030401	0.043452
110	C	0.491007	0.97604	0.044569
111	C	0.47723	0.948485	0.003626
112	C	0.490773	0.975571	0.295932
113	C	0.517954	0.029933	0.294816
114	C	0.53173	0.057485	0.335758
115	H	0.480784	0.955592	0.266358
116	O	0.477321	0.94867	0.083951
117	H	0.528178	0.050382	0.073026
118	O	0.531637	0.057299	0.255432
119	H	0.488684	0.971388	0.110284
120	H	0.520278	0.034581	0.2291
121	C	0.977066	0.489282	0.043451
122	C	0.977535	0.489516	0.294814
123	C	0.949983	0.475737	0.335758
124	H	0.957086	0.47929	0.073025
125	O	0.950171	0.475833	0.255431
126	H	0.97289	0.487192	0.229099
127	C	0.281701	0.641598	0.3362
128	C	0.311334	0.616694	0.336197
129	C	0.365871	0.641598	0.3362
130	C	0.390774	0.696135	0.336197
131	C	0.365871	0.725767	0.3362
132	C	0.311335	0.696135	0.336197
133	C	0.394192	0.613275	0.336217
134	C	0.369195	0.558435	0.336257
135	C	0.396012	0.531165	0.336368
136	C	0.449999	0.557471	0.336401
137	C	0.476304	0.611458	0.336368
138	C	0.449032	0.638271	0.336257
139	C	0.225058	0.613275	0.336217
140	C	0.195214	0.558435	0.336257
141	C	0.141127	0.531165	0.336365
142	C	0.113447	0.557471	0.336398
143	C	0.141128	0.611458	0.336368
144	C	0.195214	0.638271	0.336257
145	C	0.394192	0.782409	0.336217
146	C	0.369195	0.812253	0.336257
147	C	0.396011	0.86634	0.336365
148	C	0.449998	0.894022	0.336395
149	C	0.476303	0.86634	0.336365
150	C	0.449032	0.812253	0.336257
151	H	0.122038	0.491817	0.336509
152	H	0.21165	0.536009	0.336281
153	H	0.122039	0.631714	0.336509
154	H	0.211649	0.677135	0.336277
155	H	0.330333	0.795819	0.336277
156	H	0.375754	0.885428	0.336509
157	H	0.471461	0.795819	0.336281
158	H	0.515649	0.885428	0.336509
159	H	0.471461	0.677135	0.336277
160	H	0.51565	0.631714	0.336509
161	H	0.375753	0.491817	0.336509
162	H	0.330333	0.536009	0.336277
163	H	0.292083	0.578191	0.33617
164	H	0.292083	0.715384	0.336173
165	H	0.429276	0.715384	0.33617
166	C	0.727263	0.364378	0.336445
167	C	0.697626	0.389278	0.336448
168	C	0.643089	0.364378	0.336445
169	C	0.61819	0.309841	0.336445
170	C	0.643091	0.280207	0.336445
171	C	0.697626	0.309841	0.336445
172	C	0.614771	0.392701	0.336445
173	C	0.639766	0.447541	0.336415
174	C	0.612951	0.474811	0.336331
175	C	0.558962	0.448505	0.336311
176	C	0.532657	0.394518	0.336328
177	C	0.559929	0.367703	0.336415
178	C	0.783904	0.392701	0.336445
179	C	0.81375	0.447541	0.336415
180	C	0.867838	0.474811	0.336331
181	C	0.895518	0.448505	0.336314
182	C	0.867836	0.394518	0.336331
183	C	0.813749	0.367703	0.336415
184	C	0.614769	0.223563	0.336442
185	C	0.639765	0.19372	0.336415
186	C	0.612951	0.139632	0.336331
187	C	0.558963	0.11195	0.336318
188	C	0.532656	0.139632	0.336334
189	C	0.55993	0.19372	0.336415
190	H	0.886926	0.514159	0.33619
191	H	0.797314	0.469967	0.336381
192	H	0.886927	0.374262	0.33619
193	H	0.797314	0.32884	0.336385
194	H	0.678629	0.210155	0.336381
195	H	0.633208	0.120544	0.33619
196	H	0.537501	0.210155	0.336381
197	H	0.493311	0.120544	0.33619
198	H	0.5375	0.32884	0.336385
199	H	0.493312	0.374262	0.33619
200	H	0.633207	0.514159	0.33619
201	H	0.678628	0.469967	0.336388
202	H	0.71688	0.427784	0.336472
203	H	0.71688	0.29059	0.336468
204	H	0.579684	0.29059	0.336472
205	C	0.518189	0.489278	0.376785
206	C	0.491007	0.51646	0.377901
207	C	0.477231	0.530239	0.336961
208	C	0.490772	0.516698	0.629268
209	C	0.517953	0.489516	0.628148
210	C	0.53173	0.475737	0.669087
211	H	0.480781	0.526689	0.599692
212	O	0.477325	0.530143	0.417285
213	H	0.528179	0.479286	0.406357
214	O	0.531634	0.475833	0.588764
215	H	0.488686	0.518784	0.443618
216	H	0.520274	0.487192	0.562431
217	C	0.518188	0.030401	0.376785
218	C	0.491007	0.97604	0.377901
219	C	0.47723	0.948485	0.336958
220	C	0.490773	0.975571	0.629264
221	C	0.517954	0.029933	0.628148
222	C	0.53173	0.057485	0.669091
223	H	0.480784	0.955592	0.599692
224	O	0.477321	0.94867	0.417285
225	H	0.528178	0.050382	0.40636
226	O	0.531637	0.057299	0.588767
227	H	0.488684	0.971388	0.443618
228	H	0.520278	0.034581	0.562434
229	C	0.977066	0.489282	0.376785
230	C	0.977535	0.489516	0.628148
231	C	0.949983	0.475737	0.669091
232	H	0.957086	0.47929	0.406357
233	O	0.950171	0.475833	0.588764
234	H	0.97289	0.487192	0.562434
235	C	0.281701	0.641598	0.669533
236	C	0.311334	0.616694	0.66953
237	C	0.365871	0.641598	0.669533
238	C	0.390774	0.696135	0.66953
239	C	0.365871	0.725767	0.669533
240	C	0.311335	0.696135	0.66953
241	C	0.394192	0.613275	0.66955
242	C	0.369195	0.558435	0.66959
243	C	0.396012	0.531165	0.669701
244	C	0.449999	0.557471	0.669735
245	C	0.476304	0.611458	0.669701
246	C	0.449032	0.638271	0.66959
247	C	0.225058	0.613275	0.66955
248	C	0.195214	0.558435	0.66959
249	C	0.141127	0.531165	0.669698
250	C	0.113447	0.557471	0.669731
251	C	0.141128	0.611458	0.669701
252	C	0.195214	0.638271	0.66959
253	C	0.394192	0.782409	0.66955
254	C	0.369195	0.812253	0.66959
255	C	0.396011	0.86634	0.669698
256	C	0.449998	0.894022	0.669728
257	C	0.476303	0.86634	0.669698
258	C	0.449032	0.812253	0.66959
259	H	0.122038	0.491817	0.669842
260	H	0.21165	0.536009	0.669614
261	H	0.122039	0.631714	0.669842
262	H	0.211649	0.677135	0.66961
263	H	0.330333	0.795819	0.669614
264	H	0.375754	0.885428	0.669842
265	H	0.471461	0.795819	0.669614
266	H	0.515649	0.885428	0.669842
267	H	0.471461	0.677135	0.66961
268	H	0.51565	0.631714	0.669842
269	H	0.375753	0.491817	0.669842
270	H	0.330333	0.536009	0.66961
271	H	0.292083	0.578191	0.669503
272	H	0.292083	0.715384	0.669507
273	H	0.429276	0.715384	0.669503
274	C	0.727263	0.364378	0.669778
275	C	0.697626	0.389278	0.669782
276	C	0.643089	0.364378	0.669778
277	C	0.61819	0.309841	0.669782
278	C	0.643091	0.280207	0.669778
279	C	0.697626	0.309841	0.669778
280	C	0.614771	0.392701	0.669778
281	C	0.639766	0.447541	0.669748
282	C	0.612951	0.474811	0.669664
283	C	0.558962	0.448505	0.669644
284	C	0.532657	0.394518	0.669661
285	C	0.559929	0.367703	0.669748
286	C	0.783904	0.392701	0.669778
287	C	0.81375	0.447541	0.669748
288	C	0.867838	0.474811	0.669667
289	C	0.895518	0.448505	0.669647
290	C	0.867836	0.394518	0.669664
291	C	0.813749	0.367703	0.669748
292	C	0.614769	0.223563	0.669775
293	C	0.639765	0.19372	0.669748
294	C	0.612951	0.139632	0.669664
295	C	0.558963	0.11195	0.669651
296	C	0.532656	0.139632	0.669667
297	C	0.55993	0.19372	0.669748
298	H	0.886926	0.514159	0.669523
299	H	0.797314	0.469967	0.669714
300	H	0.886927	0.374262	0.669527
301	H	0.797314	0.32884	0.669718
302	H	0.678629	0.210155	0.669714
303	H	0.633208	0.120544	0.669523
304	H	0.537501	0.210155	0.669714
305	H	0.493311	0.120544	0.669523
306	H	0.5375	0.32884	0.669721
307	H	0.493312	0.374262	0.669523
308	H	0.633207	0.514159	0.669527
309	H	0.678628	0.469967	0.669721
310	H	0.71688	0.427784	0.669805
311	H	0.71688	0.29059	0.669802
312	H	0.579684	0.29059	0.669805
313	C	0.518189	0.489278	0.710118
314	C	0.491007	0.51646	0.711238
315	C	0.477231	0.530239	0.670295
316	C	0.490772	0.516698	0.962601
317	C	0.517953	0.489516	0.961481
318	C	0.53173	0.475737	0.002421
319	H	0.480781	0.526689	0.933025
320	O	0.477325	0.530143	0.750618
321	H	0.528179	0.479286	0.73969
322	O	0.531634	0.475833	0.922097
323	H	0.488686	0.518784	0.776951
324	H	0.520274	0.487192	0.895764
325	C	0.518188	0.030401	0.710118
326	C	0.491007	0.97604	0.711234
327	C	0.47723	0.948485	0.670295
328	C	0.490773	0.975571	0.962601
329	C	0.517954	0.029933	0.961484
330	C	0.53173	0.057485	0.002424
331	H	0.480784	0.955592	0.933025
332	O	0.477321	0.94867	0.750618
333	H	0.528178	0.050382	0.739693
334	O	0.531637	0.057299	0.9221
335	H	0.488684	0.971388	0.776951
336	H	0.520278	0.034581	0.895767
337	C	0.977066	0.489282	0.710118
338	C	0.977535	0.489516	0.961481
339	C	0.949983	0.475737	0.002424
340	H	0.957086	0.47929	0.739693
341	O	0.950171	0.475833	0.922097
342	H	0.97289	0.487192	0.895767
