data_C168H126N36_2018-02-15_10:34:41
#******************************************
#
# CIF file created by Zeo++
# Zeo++ is an open source package to
# analyze microporous materials
#
#*******************************************

_cell_length_a		25.2517   
_cell_length_b		25.2533   
_cell_length_c		30.037   
_cell_angle_alpha		90   
_cell_angle_beta		90   
_cell_angle_gamma		90.0377   

_symmetry_space_group_name_H-M		'P1'
_symmetry_Int_Tables_number		1
_symmetry_cell_setting		Monoclinic

loop_
_symmetry_equiv_pos_as_xyz
'+x,+y,+z'

loop_
_atom_site_label
_atom_site_type_symbol
_atom_site_fract_x
_atom_site_fract_y
_atom_site_fract_z
1	C	0.917676	0.850742	0.999385
2	C	0.874536	0.884167	0.001103
3	C	0.893053	0.936331	0.001759
4	N	0.946583	0.932525	0.000951
5	C	0.963606	0.881657	0.999533
6	C	0.016189	0.861513	0.998049
7	C	0.062806	0.892982	0.998136
8	N	0.066319	0.946326	0.999511
9	C	0.117128	0.963056	0.998575
10	C	0.14828	0.917434	0.996611
11	C	0.114819	0.874244	0.996667
12	C	0.135905	0.016045	0.999091
13	C	0.103219	0.061866	0.000871
14	N	0.049689	0.065641	0.001333
15	C	0.032659	0.116487	0.003046
16	C	0.078553	0.147428	0.003848
17	C	0.121722	0.114004	0.002654
18	C	0.980077	0.13664	0.003696
19	C	0.933442	0.105247	0.003288
20	N	0.929973	0.051884	0.002682
21	C	0.879162	0.035182	0.003177
22	C	0.847962	0.080828	0.003904
23	C	0.88143	0.124022	0.004137
24	C	0.8604	0.982194	0.003027
25	C	0.804605	0.97456	0.005037
26	C	0.777959	0.977387	0.046302
27	C	0.722868	0.969776	0.048459
28	C	0.693385	0.958455	0.009598
29	C	0.72021	0.955972	0.301656
30	C	0.775269	0.963979	0.299341
31	C	0.973386	0.192517	0.005961
32	C	0.97585	0.218768	0.047418
33	C	0.96843	0.273856	0.049864
34	C	0.957773	0.303722	0.011088
35	C	0.955914	0.277324	0.30293
36	C	0.963525	0.222241	0.300351
37	C	0.191664	0.023797	0.996378
38	C	0.215232	0.037639	0.288682
39	C	0.27021	0.045665	0.285766
40	C	0.302858	0.039512	0.990309
41	C	0.279135	0.025284	0.031244
42	C	0.224058	0.017816	0.034371
43	C	0.022848	0.805639	0.995006
44	C	0.034573	0.781919	0.286912
45	C	0.018347	0.773318	0.033193
46	C	0.025262	0.718197	0.029891
47	C	0.037598	0.694354	0.988581
48	C	0.042175	0.726908	0.28382
49	H	0.050603	0.710756	0.253404
50	H	0.037978	0.804581	0.258793
51	H	0.021642	0.695518	0.057963
52	H	0.009876	0.789676	0.063549
53	H	0.915143	0.810379	0.998275
54	H	0.83604	0.87167	0.001411
55	H	0.969873	0.962565	0.001264
56	H	0.026401	0.035647	0.999812
57	H	0.127074	0.835714	0.995452
58	H	0.188656	0.915225	0.995339
59	H	0.192518	0.042043	0.260693
60	H	0.286282	0.055453	0.255604
61	H	0.207807	0.007743	0.064424
62	H	0.301893	0.020446	0.059136
63	H	0.160228	0.126477	0.003086
64	H	0.081009	0.1878	0.005035
65	H	0.807558	0.083017	0.00438
66	H	0.869195	0.162576	0.004952
67	H	0.983068	0.197982	0.076041
68	H	0.970691	0.292051	0.080242
69	H	0.961707	0.203985	0.269959
70	H	0.949061	0.298076	0.274251
71	H	0.793781	0.961999	0.269069
72	H	0.699755	0.948701	0.272896
73	H	0.704376	0.972389	0.078692
74	H	0.79843	0.985208	0.074978
75	C	0.951067	0.362038	0.013875
76	H	0.930996	0.372563	0.044943
77	H	0.925668	0.375485	0.31992
78	C	0.63504	0.951711	0.01214
79	H	0.624579	0.92992	0.042398
80	H	0.62139	0.927944	0.317225
81	C	0.044639	0.636084	0.985554
82	H	0.073309	0.623912	0.01088
83	H	0.060963	0.62489	0.286464
84	C	0.361133	0.046668	0.987386
85	H	0.373402	0.074346	0.013459
86	H	0.372297	0.064206	0.288735
87	C	0.012579	0.519806	0.294527
88	N	0.014155	0.466764	0.301457
89	C	0.000786	0.444125	0.007561
90	C	0.984753	0.477531	0.042751
91	N	0.983307	0.530605	0.035847
92	C	0.996754	0.553271	0.329757
93	H	0.022611	0.534783	0.264099
94	H	0.974379	0.462451	0.073067
95	N	0.003414	0.388557	0.010893
96	H	0.026674	0.378807	0.037737
97	N	0.993262	0.608789	0.326121
98	H	0.967444	0.617782	0.300782
99	C	0.477294	0.015339	0.295287
100	N	0.530364	0.016602	0.302162
101	C	0.553058	0.001791	0.007871
102	C	0.519699	0.984511	0.042685
103	N	0.466601	0.983406	0.035848
104	C	0.443875	0.998315	0.330163
105	H	0.462268	0.026469	0.265153
106	H	0.534835	0.973015	0.072689
107	N	0.60864	0.004195	0.011193
108	H	0.618531	0.026088	0.038806
109	N	0.388341	0.995028	0.326533
110	H	0.379216	0.970172	0.300548
111	C	0.917676	0.850742	0.332719
112	C	0.874536	0.884167	0.334438
113	C	0.893053	0.936331	0.335093
114	N	0.946583	0.932525	0.334284
115	C	0.963606	0.881657	0.332866
116	C	0.016189	0.861513	0.331382
117	C	0.062806	0.892982	0.331468
118	N	0.066319	0.946326	0.332844
119	C	0.117128	0.963056	0.33191
120	C	0.14828	0.917434	0.329945
121	C	0.114819	0.874244	0.330002
122	C	0.135905	0.016045	0.332425
123	C	0.103219	0.061866	0.334204
124	N	0.049689	0.065641	0.334667
125	C	0.032659	0.116487	0.336378
126	C	0.078553	0.147428	0.337181
127	C	0.121722	0.114004	0.335989
128	C	0.980077	0.13664	0.337028
129	C	0.933442	0.105247	0.336621
130	N	0.929973	0.051884	0.336016
131	C	0.879162	0.035182	0.336512
132	C	0.847962	0.080828	0.337237
133	C	0.88143	0.124022	0.33747
134	C	0.8604	0.982194	0.336362
135	C	0.804605	0.97456	0.338369
136	C	0.777959	0.977387	0.379635
137	C	0.722868	0.969776	0.381792
138	C	0.693385	0.958455	0.34293
139	C	0.72021	0.955972	0.63499
140	C	0.775269	0.963979	0.632676
141	C	0.973386	0.192517	0.339295
142	C	0.97585	0.218768	0.38075
143	C	0.96843	0.273856	0.383197
144	C	0.957773	0.303722	0.344422
145	C	0.955914	0.277324	0.636262
146	C	0.963525	0.222241	0.633685
147	C	0.191664	0.023797	0.32971
148	C	0.215232	0.037639	0.622016
149	C	0.27021	0.045665	0.6191
150	C	0.302858	0.039512	0.323643
151	C	0.279135	0.025284	0.364577
152	C	0.224058	0.017816	0.367703
153	C	0.022848	0.805639	0.328338
154	C	0.034573	0.781919	0.620245
155	C	0.018347	0.773318	0.366528
156	C	0.025262	0.718197	0.363225
157	C	0.037598	0.694354	0.321916
158	C	0.042175	0.726908	0.617152
159	H	0.050603	0.710756	0.586736
160	H	0.037978	0.804581	0.592126
161	H	0.021642	0.695518	0.391297
162	H	0.009876	0.789676	0.396884
163	H	0.915143	0.810379	0.331608
164	H	0.83604	0.87167	0.334744
165	H	0.969873	0.962565	0.334597
166	H	0.026401	0.035647	0.333146
167	H	0.127074	0.835714	0.328787
168	H	0.188656	0.915225	0.328671
169	H	0.192518	0.042043	0.594027
170	H	0.286282	0.055453	0.588937
171	H	0.207807	0.007743	0.397756
172	H	0.301893	0.020446	0.392469
173	H	0.160228	0.126477	0.336418
174	H	0.081009	0.1878	0.338369
175	H	0.807558	0.083017	0.337713
176	H	0.869195	0.162576	0.338286
177	H	0.983068	0.197982	0.409375
178	H	0.970691	0.292051	0.413577
179	H	0.961707	0.203985	0.603293
180	H	0.949061	0.298076	0.607584
181	H	0.793781	0.961999	0.602404
182	H	0.699755	0.948701	0.606229
183	H	0.704376	0.972389	0.412025
184	H	0.79843	0.985208	0.40831
185	C	0.951067	0.362038	0.347208
186	H	0.930996	0.372563	0.378277
187	H	0.925668	0.375485	0.653254
188	C	0.63504	0.951711	0.345474
189	H	0.624579	0.92992	0.37573
190	H	0.62139	0.927944	0.650558
191	C	0.044639	0.636084	0.318886
192	H	0.073309	0.623912	0.344212
193	H	0.060963	0.62489	0.619799
194	C	0.361133	0.046668	0.320718
195	H	0.373402	0.074346	0.346792
196	H	0.372297	0.064206	0.622069
197	C	0.012579	0.519806	0.627859
198	N	0.014155	0.466764	0.63479
199	C	0.000786	0.444125	0.340893
200	C	0.984753	0.477531	0.376086
201	N	0.983307	0.530605	0.369181
202	C	0.996754	0.553271	0.663089
203	H	0.022611	0.534783	0.597433
204	H	0.974379	0.462451	0.406399
205	N	0.003414	0.388557	0.344225
206	H	0.026674	0.378807	0.371069
207	N	0.993262	0.608789	0.659453
208	H	0.967444	0.617782	0.634115
209	C	0.477294	0.015339	0.628621
210	N	0.530364	0.016602	0.635496
211	C	0.553058	0.001791	0.341206
212	C	0.519699	0.984511	0.37602
213	N	0.466601	0.983406	0.369181
214	C	0.443875	0.998315	0.663498
215	H	0.462268	0.026469	0.598485
216	H	0.534835	0.973015	0.406023
217	N	0.60864	0.004195	0.344525
218	H	0.618531	0.026088	0.372138
219	N	0.388341	0.995028	0.659866
220	H	0.379216	0.970172	0.633882
221	C	0.917676	0.850742	0.666052
222	C	0.874536	0.884167	0.66777
223	C	0.893053	0.936331	0.668426
224	N	0.946583	0.932525	0.667617
225	C	0.963606	0.881657	0.666198
226	C	0.016189	0.861513	0.664713
227	C	0.062806	0.892982	0.6648
228	N	0.066319	0.946326	0.666178
229	C	0.117128	0.963056	0.665243
230	C	0.14828	0.917434	0.663279
231	C	0.114819	0.874244	0.663335
232	C	0.135905	0.016045	0.665759
233	C	0.103219	0.061866	0.667537
234	N	0.049689	0.065641	0.667999
235	C	0.032659	0.116487	0.669714
236	C	0.078553	0.147428	0.670516
237	C	0.121722	0.114004	0.669321
238	C	0.980077	0.13664	0.670363
239	C	0.933442	0.105247	0.669954
240	N	0.929973	0.051884	0.669348
241	C	0.879162	0.035182	0.669844
242	C	0.847962	0.080828	0.67057
243	C	0.88143	0.124022	0.670803
244	C	0.8604	0.982194	0.669694
245	C	0.804605	0.97456	0.671705
246	C	0.777959	0.977387	0.712967
247	C	0.722868	0.969776	0.715125
248	C	0.693385	0.958455	0.676266
249	C	0.72021	0.955972	0.968322
250	C	0.775269	0.963979	0.966009
251	C	0.973386	0.192517	0.672627
252	C	0.97585	0.218768	0.714086
253	C	0.96843	0.273856	0.71653
254	C	0.957773	0.303722	0.677754
255	C	0.955914	0.277324	0.969597
256	C	0.963525	0.222241	0.967017
257	C	0.191664	0.023797	0.663042
258	C	0.215232	0.037639	0.955348
259	C	0.27021	0.045665	0.952432
260	C	0.302858	0.039512	0.656976
261	C	0.279135	0.025284	0.697909
262	C	0.224058	0.017816	0.701039
263	C	0.022848	0.805639	0.661671
264	C	0.034573	0.781919	0.953577
265	C	0.018347	0.773318	0.69986
266	C	0.025262	0.718197	0.696558
267	C	0.037598	0.694354	0.655249
268	C	0.042175	0.726908	0.950488
269	H	0.050603	0.710756	0.920072
270	H	0.037978	0.804581	0.925459
271	H	0.021642	0.695518	0.72463
272	H	0.009876	0.789676	0.730216
273	H	0.915143	0.810379	0.664943
274	H	0.83604	0.87167	0.668079
275	H	0.969873	0.962565	0.66793
276	H	0.026401	0.035647	0.666478
277	H	0.127074	0.835714	0.66212
278	H	0.188656	0.915225	0.662004
279	H	0.192518	0.042043	0.92736
280	H	0.286282	0.055453	0.922269
281	H	0.207807	0.007743	0.731092
282	H	0.301893	0.020446	0.725801
283	H	0.160228	0.126477	0.669754
284	H	0.081009	0.1878	0.671702
285	H	0.807558	0.083017	0.671046
286	H	0.869195	0.162576	0.671618
287	H	0.983068	0.197982	0.742707
288	H	0.970691	0.292051	0.746909
289	H	0.961707	0.203985	0.936625
290	H	0.949061	0.298076	0.940916
291	H	0.793781	0.961999	0.935736
292	H	0.699755	0.948701	0.939565
293	H	0.704376	0.972389	0.745357
294	H	0.79843	0.985208	0.741645
295	C	0.951067	0.362038	0.680541
296	H	0.930996	0.372563	0.711609
297	H	0.925668	0.375485	0.986587
298	C	0.63504	0.951711	0.678806
299	H	0.624579	0.92992	0.709065
300	H	0.62139	0.927944	0.983893
301	C	0.044639	0.636084	0.652219
302	H	0.073309	0.623912	0.677548
303	H	0.060963	0.62489	0.953131
304	C	0.361133	0.046668	0.654053
305	H	0.373402	0.074346	0.680124
306	H	0.372297	0.064206	0.955402
307	C	0.012579	0.519806	0.961194
308	N	0.014155	0.466764	0.968123
309	C	0.000786	0.444125	0.674228
310	C	0.984753	0.477531	0.709418
311	N	0.983307	0.530605	0.702514
312	C	0.996754	0.553271	0.996424
313	H	0.022611	0.534783	0.930765
314	H	0.974379	0.462451	0.739734
315	N	0.003414	0.388557	0.677561
316	H	0.026674	0.378807	0.704405
317	N	0.993262	0.608789	0.992789
318	H	0.967444	0.617782	0.96745
319	C	0.477294	0.015339	0.961954
320	N	0.530364	0.016602	0.968828
321	C	0.553058	0.001791	0.674538
322	C	0.519699	0.984511	0.709352
323	N	0.466601	0.983406	0.702514
324	C	0.443875	0.998315	0.996831
325	H	0.462268	0.026469	0.931821
326	H	0.534835	0.973015	0.739355
327	N	0.60864	0.004195	0.677861
328	H	0.618531	0.026088	0.705473
329	N	0.388341	0.995028	0.993202
330	H	0.379216	0.970172	0.967214
