data_C162H90N36O36_2018-02-15_10:32:43
#******************************************
#
# CIF file created by Zeo++
# Zeo++ is an open source package to
# analyze microporous materials
#
#*******************************************

_cell_length_a		29.2526   
_cell_length_b		29.2526   
_cell_length_c		30.2728   
_cell_angle_alpha		90   
_cell_angle_beta		90   
_cell_angle_gamma		120   

_symmetry_space_group_name_H-M		'P1'
_symmetry_Int_Tables_number		1
_symmetry_cell_setting		Monoclinic

loop_
_symmetry_equiv_pos_as_xyz
'+x,+y,+z'

loop_
_atom_site_label
_atom_site_type_symbol
_atom_site_fract_x
_atom_site_fract_y
_atom_site_fract_z
1	C	0.341325	0.7162	0.990291
2	C	0.287655	0.676873	0.989892
3	C	0.272518	0.622862	0.990374
4	C	0.311849	0.608521	0.989954
5	C	0.365859	0.647394	0.323693
6	C	0.380199	0.701066	0.989859
7	H	0.300979	0.569344	0.989789
8	H	0.419377	0.729373	0.989657
9	H	0.259345	0.68774	0.98968
10	C	0.356234	0.770078	0.990859
11	C	0.404822	0.632481	0.324314
12	C	0.218645	0.583898	0.991002
13	O	0.448546	0.660286	0.965837
14	O	0.328441	0.785962	0.965662
15	O	0.202736	0.540149	0.96589
16	C	0.647482	0.275396	0.997283
17	C	0.700468	0.316425	0.99759
18	C	0.713383	0.369841	0.997202
19	C	0.672349	0.381796	0.997624
20	C	0.618931	0.341292	0.330643
21	C	0.606977	0.288305	0.997703
22	H	0.681592	0.420498	0.998672
23	H	0.568273	0.258847	0.998804
24	H	0.729928	0.307179	0.998625
25	C	0.634878	0.222135	0.998938
26	C	0.57827	0.353891	0.332361
27	C	0.76664	0.410515	0.998821
28	O	0.535806	0.324048	0.024954
29	O	0.664773	0.209482	0.024766
30	O	0.779302	0.453047	0.024673
31	C	0.428376	0.567895	0.01331
32	C	0.439845	0.554616	0.304868
33	N	0.464073	0.525801	0.301983
34	C	0.478693	0.508531	0.004603
35	C	0.468329	0.52018	0.047727
36	C	0.442262	0.549631	0.051356
37	H	0.43327	0.558114	0.081827
38	C	0.503326	0.478338	0.998711
39	C	0.53734	0.439555	0.282361
40	C	0.552914	0.419092	0.317727
41	C	0.543578	0.429932	0.027964
42	H	0.428231	0.564445	0.276321
43	N	0.513208	0.467763	0.29057
44	C	0.51845	0.459568	0.035962
45	C	0.508937	0.47173	0.079073
46	C	0.483773	0.501817	0.084941
47	H	0.557184	0.417896	0.054044
48	H	0.544349	0.433796	0.250357
49	O	0.522137	0.453387	0.115434
50	H	0.55806	0.480876	0.123607
51	O	0.473621	0.511555	0.126747
52	H	0.504684	0.544902	0.135876
53	N	0.582037	0.395574	0.309484
54	H	0.608858	0.411443	0.286424
55	N	0.399422	0.592337	0.017161
56	H	0.371825	0.578616	0.039695
57	C	0.420781	0.858253	0.013143
58	C	0.434082	0.883015	0.304707
59	N	0.462891	0.936059	0.301822
60	C	0.480183	0.967946	0.004443
61	C	0.468556	0.945923	0.047564
62	C	0.439105	0.890408	0.051186
63	H	0.430659	0.872929	0.081654
64	C	0.510395	0.022773	0.998557
65	C	0.549166	0.095577	0.282215
66	C	0.569627	0.131603	0.317585
67	C	0.558895	0.111424	0.027825
68	H	0.42422	0.861585	0.276152
69	N	0.520952	0.043237	0.290419
70	C	0.529201	0.056659	0.035812
71	C	0.51707	0.034975	0.07892
72	C	0.486958	0.97972	0.084782
73	H	0.570889	0.137061	0.053907
74	H	0.554907	0.108357	0.250214
75	O	0.53545	0.06651	0.115284
76	H	0.50797	0.07495	0.123486
77	O	0.477246	0.959826	0.126585
78	H	0.443908	0.957544	0.135736
79	N	0.593209	0.184251	0.309356
80	H	0.577249	0.195233	0.286398
81	N	0.396437	0.804865	0.01697
82	H	0.410122	0.79101	0.039555
83	C	0.130494	0.56034	0.013283
84	C	0.105778	0.548901	0.304827
85	N	0.052736	0.52464	0.301906
86	C	0.020815	0.509996	0.004506
87	C	0.042792	0.520357	0.047644
88	C	0.098308	0.546445	0.051306
89	H	0.115757	0.555437	0.081786
90	C	0.965994	0.48536	0.998578
91	C	0.893243	0.45137	0.282186
92	C	0.857172	0.435798	0.317524
93	C	0.877313	0.445129	0.027776
94	H	0.127238	0.560494	0.276287
95	N	0.945573	0.475484	0.290425
96	C	0.93207	0.470226	0.035808
97	C	0.953707	0.479731	0.078932
98	C	0.008951	0.5049	0.084836
99	H	0.851646	0.431487	0.053837
100	H	0.880497	0.444359	0.250175
101	O	0.92213	0.466516	0.115273
102	H	0.913686	0.430587	0.123441
103	O	0.028804	0.515032	0.126654
104	H	0.031081	0.483967	0.135785
105	N	0.804534	0.406714	0.309269
106	H	0.793569	0.379779	0.286307
107	N	0.183885	0.589333	0.017131
108	H	0.197747	0.616941	0.039657
109	C	0.341325	0.7162	0.323623
110	C	0.287655	0.676873	0.323223
111	C	0.272518	0.622862	0.323708
112	C	0.311849	0.608521	0.323287
113	C	0.365859	0.647394	0.657025
114	C	0.380199	0.701066	0.323192
115	H	0.300979	0.569344	0.323121
116	H	0.419377	0.729373	0.322989
117	H	0.259345	0.68774	0.323015
118	C	0.356234	0.770078	0.324192
119	C	0.404822	0.632481	0.657646
120	C	0.218645	0.583898	0.324334
121	O	0.448546	0.660286	0.299169
122	O	0.328441	0.785962	0.298995
123	O	0.202736	0.540149	0.299223
124	C	0.647482	0.275396	0.330617
125	C	0.700468	0.316425	0.330924
126	C	0.713383	0.369841	0.330534
127	C	0.672349	0.381796	0.330957
128	C	0.618931	0.341292	0.663979
129	C	0.606977	0.288305	0.331036
130	H	0.681592	0.420498	0.332004
131	H	0.568273	0.258847	0.332136
132	H	0.729928	0.307179	0.331958
133	C	0.634878	0.222135	0.332272
134	C	0.57827	0.353891	0.665693
135	C	0.76664	0.410515	0.332156
136	O	0.535806	0.324048	0.358289
137	O	0.664773	0.209482	0.3581
138	O	0.779302	0.453047	0.358008
139	C	0.428376	0.567895	0.346644
140	C	0.439845	0.554616	0.638203
141	N	0.464073	0.525801	0.635316
142	C	0.478693	0.508531	0.337937
143	C	0.468329	0.52018	0.381061
144	C	0.442262	0.549631	0.384688
145	H	0.43327	0.558114	0.415161
146	C	0.503326	0.478338	0.332044
147	C	0.53734	0.439555	0.615694
148	C	0.552914	0.419092	0.65106
149	C	0.543578	0.429932	0.361298
150	H	0.428231	0.564445	0.609656
151	N	0.513208	0.467763	0.623903
152	C	0.51845	0.459568	0.369295
153	C	0.508937	0.47173	0.412406
154	C	0.483773	0.501817	0.418273
155	H	0.557184	0.417896	0.387377
156	H	0.544349	0.433796	0.583692
157	O	0.522137	0.453387	0.448766
158	H	0.55806	0.480876	0.456941
159	O	0.473621	0.511555	0.46008
160	H	0.504684	0.544902	0.46921
161	N	0.582037	0.395574	0.642818
162	H	0.608858	0.411443	0.619757
163	N	0.399422	0.592337	0.350493
164	H	0.371825	0.578616	0.373028
165	C	0.420781	0.858253	0.346476
166	C	0.434082	0.883015	0.638041
167	N	0.462891	0.936059	0.635154
168	C	0.480183	0.967946	0.337778
169	C	0.468556	0.945923	0.3809
170	C	0.439105	0.890408	0.38452
171	H	0.430659	0.872929	0.414986
172	C	0.510395	0.022773	0.331892
173	C	0.549166	0.095577	0.615549
174	C	0.569627	0.131603	0.650917
175	C	0.558895	0.111424	0.361159
176	H	0.42422	0.861585	0.609488
177	N	0.520952	0.043237	0.623751
178	C	0.529201	0.056659	0.369146
179	C	0.51707	0.034975	0.412254
180	C	0.486958	0.97972	0.418114
181	H	0.570889	0.137061	0.387239
182	H	0.554907	0.108357	0.583547
183	O	0.53545	0.06651	0.448617
184	H	0.50797	0.07495	0.456819
185	O	0.477246	0.959826	0.459918
186	H	0.443908	0.957544	0.469071
187	N	0.593209	0.184251	0.642689
188	H	0.577249	0.195233	0.619731
189	N	0.396437	0.804865	0.350304
190	H	0.410122	0.79101	0.372889
191	C	0.130494	0.56034	0.346618
192	C	0.105778	0.548901	0.63816
193	N	0.052736	0.52464	0.63524
194	C	0.020815	0.509996	0.337838
195	C	0.042792	0.520357	0.380976
196	C	0.098308	0.546445	0.384639
197	H	0.115757	0.555437	0.415118
198	C	0.965994	0.48536	0.331912
199	C	0.893243	0.45137	0.615519
200	C	0.857172	0.435798	0.650858
201	C	0.877313	0.445129	0.36111
202	H	0.127238	0.560494	0.60962
203	N	0.945573	0.475484	0.623758
204	C	0.93207	0.470226	0.36914
205	C	0.953707	0.479731	0.412264
206	C	0.008951	0.5049	0.418167
207	H	0.851646	0.431487	0.387169
208	H	0.880497	0.444359	0.583507
209	O	0.92213	0.466516	0.448607
210	H	0.913686	0.430587	0.456773
211	O	0.028804	0.515032	0.459987
212	H	0.031081	0.483967	0.469117
213	N	0.804534	0.406714	0.642603
214	H	0.793569	0.379779	0.619642
215	N	0.183885	0.589333	0.350466
216	H	0.197747	0.616941	0.372991
217	C	0.341325	0.7162	0.656956
218	C	0.287655	0.676873	0.656556
219	C	0.272518	0.622862	0.657042
220	C	0.311849	0.608521	0.656619
221	C	0.365859	0.647394	0.990361
222	C	0.380199	0.701066	0.656526
223	H	0.300979	0.569344	0.656454
224	H	0.419377	0.729373	0.656322
225	H	0.259345	0.68774	0.656348
226	C	0.356234	0.770078	0.657524
227	C	0.404822	0.632481	0.990982
228	C	0.218645	0.583898	0.657666
229	O	0.448546	0.660286	0.632502
230	O	0.328441	0.785962	0.63233
231	O	0.202736	0.540149	0.632558
232	C	0.647482	0.275396	0.663949
233	C	0.700468	0.316425	0.664256
234	C	0.713383	0.369841	0.66387
235	C	0.672349	0.381796	0.664289
236	C	0.618931	0.341292	0.997311
237	C	0.606977	0.288305	0.664368
238	H	0.681592	0.420498	0.66534
239	H	0.568273	0.258847	0.665472
240	H	0.729928	0.307179	0.665293
241	C	0.634878	0.222135	0.665604
242	C	0.57827	0.353891	0.999028
243	C	0.76664	0.410515	0.665488
244	O	0.535806	0.324048	0.691621
245	O	0.664773	0.209482	0.691432
246	O	0.779302	0.453047	0.69134
247	C	0.428376	0.567895	0.679977
248	C	0.439845	0.554616	0.971535
249	N	0.464073	0.525801	0.968648
250	C	0.478693	0.508531	0.671269
251	C	0.468329	0.52018	0.714394
252	C	0.442262	0.549631	0.718024
253	H	0.43327	0.558114	0.748493
254	C	0.503326	0.478338	0.665379
255	C	0.53734	0.439555	0.949027
256	C	0.552914	0.419092	0.984395
257	C	0.543578	0.429932	0.69463
258	H	0.428231	0.564445	0.942988
259	N	0.513208	0.467763	0.957235
260	C	0.51845	0.459568	0.702627
261	C	0.508937	0.47173	0.745739
262	C	0.483773	0.501817	0.751608
263	H	0.557184	0.417896	0.720709
264	H	0.544349	0.433796	0.917024
265	O	0.522137	0.453387	0.782101
266	H	0.55806	0.480876	0.790274
267	O	0.473621	0.511555	0.793415
268	H	0.504684	0.544902	0.802542
269	N	0.582037	0.395574	0.97615
270	H	0.608858	0.411443	0.95309
271	N	0.399422	0.592337	0.683828
272	H	0.371825	0.578616	0.706363
273	C	0.420781	0.858253	0.679808
274	C	0.434082	0.883015	0.971373
275	N	0.462891	0.936059	0.96849
276	C	0.480183	0.967946	0.671111
277	C	0.468556	0.945923	0.714232
278	C	0.439105	0.890408	0.717852
279	H	0.430659	0.872929	0.748322
280	C	0.510395	0.022773	0.665224
281	C	0.549166	0.095577	0.948881
282	C	0.569627	0.131603	0.984253
283	C	0.558895	0.111424	0.694491
284	H	0.42422	0.861585	0.94282
285	N	0.520952	0.043237	0.957087
286	C	0.529201	0.056659	0.702479
287	C	0.51707	0.034975	0.745587
288	C	0.486958	0.97972	0.75145
289	H	0.570889	0.137061	0.720574
290	H	0.554907	0.108357	0.916882
291	O	0.53545	0.06651	0.781949
292	H	0.50797	0.07495	0.790151
293	O	0.477246	0.959826	0.793253
294	H	0.443908	0.957544	0.802403
295	N	0.593209	0.184251	0.976021
296	H	0.577249	0.195233	0.953063
297	N	0.396437	0.804865	0.683637
298	H	0.410122	0.79101	0.706221
299	C	0.130494	0.56034	0.67995
300	C	0.105778	0.548901	0.971492
301	N	0.052736	0.52464	0.968572
302	C	0.020815	0.509996	0.671173
303	C	0.042792	0.520357	0.714311
304	C	0.098308	0.546445	0.717974
305	H	0.115757	0.555437	0.748454
306	C	0.965994	0.48536	0.665244
307	C	0.893243	0.45137	0.948851
308	C	0.857172	0.435798	0.98419
309	C	0.877313	0.445129	0.694442
310	H	0.127238	0.560494	0.942955
311	N	0.945573	0.475484	0.957093
312	C	0.93207	0.470226	0.702475
313	C	0.953707	0.479731	0.7456
314	C	0.008951	0.5049	0.751503
315	H	0.851646	0.431487	0.720505
316	H	0.880497	0.444359	0.916843
317	O	0.92213	0.466516	0.781939
318	H	0.913686	0.430587	0.790108
319	O	0.028804	0.515032	0.793322
320	H	0.031081	0.483967	0.802453
321	N	0.804534	0.406714	0.975935
322	H	0.793569	0.379779	0.952974
323	N	0.183885	0.589333	0.683798
324	H	0.197747	0.616941	0.706324
