data_C168H102N36_2018-02-15_10:47:44
#******************************************
#
# CIF file created by Zeo++
# Zeo++ is an open source package to
# analyze microporous materials
#
#*******************************************

_cell_length_a		25.6597   
_cell_length_b		25.6596   
_cell_length_c		29.2952   
_cell_angle_alpha		90   
_cell_angle_beta		90   
_cell_angle_gamma		90.0373   

_symmetry_space_group_name_H-M		'P1'
_symmetry_Int_Tables_number		1
_symmetry_cell_setting		Monoclinic

loop_
_symmetry_equiv_pos_as_xyz
'+x,+y,+z'

loop_
_atom_site_label
_atom_site_type_symbol
_atom_site_fract_x
_atom_site_fract_y
_atom_site_fract_z
1	C	0.916161	0.874577	0.337679
2	C	0.877365	0.911869	0.337975
3	C	0.900722	0.961063	0.339493
4	N	0.95279	0.951488	0.341017
5	C	0.964389	0.899827	0.339544
6	C	0.013728	0.874203	0.338963
7	C	0.062558	0.900626	0.339475
8	N	0.071829	0.952595	0.340613
9	C	0.123414	0.963858	0.339664
10	C	0.148902	0.915809	0.338002
11	C	0.111577	0.877009	0.338239
12	C	0.147821	0.013709	0.339193
13	C	0.120186	0.061971	0.339692
14	N	0.068112	0.071535	0.341125
15	C	0.056515	0.1232	0.339752
16	C	0.104748	0.148468	0.338164
17	C	0.143541	0.111176	0.338412
18	C	0.007182	0.148832	0.339062
19	C	0.958353	0.122422	0.339452
20	N	0.949094	0.070448	0.340455
21	C	0.897512	0.059184	0.339629
22	C	0.872017	0.10724	0.338089
23	C	0.909338	0.146046	0.338303
24	C	0.873107	0.009334	0.339098
25	C	0.817369	0.007825	0.334901
26	C	0.784269	0.017681	0.039197
27	C	0.729525	0.017309	0.034131
28	C	0.705905	0.006945	0.324642
29	C	0.739508	0.996886	0.287216
30	C	0.794108	0.997455	0.292147
31	C	0.006509	0.204582	0.334808
32	C	0.016458	0.237623	0.039132
33	C	0.016354	0.292376	0.034088
34	C	0.006133	0.316055	0.324603
35	C	0.996041	0.282507	0.28714
36	C	0.996325	0.227906	0.29205
37	C	0.203499	0.015282	0.334326
38	C	0.225926	0.026291	0.29136
39	C	0.28041	0.027399	0.285708
40	C	0.314788	0.017228	0.322576
41	C	0.292012	0.006068	0.032262
42	C	0.237349	0.005195	0.038067
43	C	0.014448	0.818516	0.33405
44	C	0.024946	0.79601	0.291022
45	C	0.00447	0.784747	0.037876
46	C	0.004957	0.730074	0.032093
47	C	0.015613	0.707217	0.322343
48	C	0.02565	0.741524	0.285389
49	H	0.033475	0.727124	0.253512
50	H	0.032186	0.819253	0.263334
51	H	0.997198	0.707065	0.05979
52	H	0.996553	0.799841	0.069453
53	H	0.909452	0.835368	0.335947
54	H	0.838423	0.903638	0.336647
55	H	0.978712	0.978452	0.342333
56	H	0.04218	0.044561	0.342053
57	H	0.119574	0.838025	0.337021
58	H	0.188146	0.909309	0.336503
59	H	0.202629	0.033528	0.26371
60	H	0.294747	0.035541	0.253876
61	H	0.22232	0.996835	0.069583
62	H	0.315069	0.99818	0.059899
63	H	0.182486	0.119422	0.337217
64	H	0.111462	0.187678	0.336466
65	H	0.832773	0.113739	0.336637
66	H	0.901343	0.185033	0.337179
67	H	0.024188	0.221931	0.070522
68	H	0.024219	0.314824	0.062114
69	H	0.98914	0.205185	0.264021
70	H	0.988522	0.297559	0.255438
71	H	0.81687	0.99044	0.264118
72	H	0.724499	0.989322	0.255505
73	H	0.707039	0.02521	0.062121
74	H	0.799913	0.025664	0.07056
75	C	0.006593	0.370114	0.317748
76	C	0.368717	0.01786	0.314886
77	C	0.015916	0.653284	0.314674
78	C	0.651852	0.007315	0.317749
79	H	0.004712	0.383064	0.285731
80	H	0.380818	0.023275	0.283012
81	H	0.020409	0.641179	0.282679
82	H	0.638916	0.00523	0.285737
83	C	0.011147	0.486664	0.054405
84	N	0.011653	0.539615	0.051128
85	C	0.010883	0.566084	0.34419
86	C	0.009125	0.535593	0.303941
87	N	0.008549	0.482767	0.307224
88	C	0.009572	0.456375	0.01425
89	H	0.011837	0.46952	0.085882
90	H	0.007928	0.552132	0.272302
91	N	0.008993	0.404289	0.016663
92	N	0.011334	0.618275	0.346054
93	C	0.535346	0.011988	0.054425
94	N	0.482399	0.012553	0.051187
95	C	0.455906	0.011992	0.344258
96	C	0.486349	0.010331	0.303984
97	N	0.539179	0.009692	0.30723
98	C	0.565598	0.010534	0.014245
99	H	0.55252	0.012534	0.085894
100	H	0.469758	0.009236	0.272363
101	N	0.617676	0.00993	0.016643
102	N	0.403727	0.012397	0.346153
103	C	0.916161	0.874577	0.671012
104	C	0.877365	0.911869	0.671309
105	C	0.900722	0.961063	0.672828
106	N	0.95279	0.951488	0.67435
107	C	0.964389	0.899827	0.672876
108	C	0.013728	0.874203	0.672295
109	C	0.062558	0.900626	0.672807
110	N	0.071829	0.952595	0.673944
111	C	0.123414	0.963858	0.672998
112	C	0.148902	0.915809	0.671336
113	C	0.111577	0.877009	0.671572
114	C	0.147821	0.013709	0.672527
115	C	0.120186	0.061971	0.673026
116	N	0.068112	0.071535	0.674456
117	C	0.056515	0.1232	0.673084
118	C	0.104748	0.148468	0.671496
119	C	0.143541	0.111176	0.671746
120	C	0.007182	0.148832	0.672394
121	C	0.958353	0.122422	0.672787
122	N	0.949094	0.070448	0.673787
123	C	0.897512	0.059184	0.672961
124	C	0.872017	0.10724	0.671421
125	C	0.909338	0.146046	0.671636
126	C	0.873107	0.009334	0.672432
127	C	0.817369	0.007825	0.668233
128	C	0.784269	0.017681	0.372529
129	C	0.729525	0.017309	0.367463
130	C	0.705905	0.006945	0.657975
131	C	0.739508	0.996886	0.62055
132	C	0.794108	0.997455	0.625479
133	C	0.006509	0.204582	0.668141
134	C	0.016458	0.237623	0.372464
135	C	0.016354	0.292376	0.367419
136	C	0.006133	0.316055	0.657935
137	C	0.996041	0.282507	0.620471
138	C	0.996325	0.227906	0.625383
139	C	0.203499	0.015282	0.66766
140	C	0.225926	0.026291	0.624694
141	C	0.28041	0.027399	0.619041
142	C	0.314788	0.017228	0.655907
143	C	0.292012	0.006068	0.365596
144	C	0.237349	0.005195	0.371399
145	C	0.014448	0.818516	0.667383
146	C	0.024946	0.79601	0.624356
147	C	0.00447	0.784747	0.371208
148	C	0.004957	0.730074	0.365426
149	C	0.015613	0.707217	0.655675
150	C	0.02565	0.741524	0.618723
151	H	0.033475	0.727124	0.586844
152	H	0.032186	0.819253	0.596665
153	H	0.997198	0.707065	0.393123
154	H	0.996553	0.799841	0.402787
155	H	0.909452	0.835368	0.669281
156	H	0.838423	0.903638	0.669981
157	H	0.978712	0.978452	0.675668
158	H	0.04218	0.044561	0.675385
159	H	0.119574	0.838025	0.670353
160	H	0.188146	0.909309	0.669838
161	H	0.202629	0.033528	0.597044
162	H	0.294747	0.035541	0.58721
163	H	0.22232	0.996835	0.402916
164	H	0.315069	0.99818	0.393232
165	H	0.182486	0.119422	0.670551
166	H	0.111462	0.187678	0.6698
167	H	0.832773	0.113739	0.669971
168	H	0.901343	0.185033	0.67051
169	H	0.024188	0.221931	0.403855
170	H	0.024219	0.314824	0.395448
171	H	0.98914	0.205185	0.597355
172	H	0.988522	0.297559	0.588773
173	H	0.81687	0.99044	0.59745
174	H	0.724499	0.989322	0.588838
175	H	0.707039	0.02521	0.395454
176	H	0.799913	0.025664	0.403893
177	C	0.006593	0.370114	0.65108
178	C	0.368717	0.01786	0.64822
179	C	0.015916	0.653284	0.648008
180	C	0.651852	0.007315	0.651084
181	H	0.004712	0.383064	0.619065
182	H	0.380818	0.023275	0.616344
183	H	0.020409	0.641179	0.616013
184	H	0.638916	0.00523	0.619071
185	C	0.011147	0.486664	0.387736
186	N	0.011653	0.539615	0.384459
187	C	0.010883	0.566084	0.677521
188	C	0.009125	0.535593	0.637272
189	N	0.008549	0.482767	0.640556
190	C	0.009572	0.456375	0.347583
191	H	0.011837	0.46952	0.419216
192	H	0.007928	0.552132	0.605636
193	N	0.008993	0.404289	0.349996
194	N	0.011334	0.618275	0.679385
195	C	0.535346	0.011988	0.387757
196	N	0.482399	0.012553	0.384521
197	C	0.455906	0.011992	0.677593
198	C	0.486349	0.010331	0.637317
199	N	0.539179	0.009692	0.640563
200	C	0.565598	0.010534	0.34758
201	H	0.55252	0.012534	0.419226
202	H	0.469758	0.009236	0.605697
203	N	0.617676	0.00993	0.349976
204	N	0.403727	0.012397	0.679484
205	C	0.916161	0.874577	0.004347
206	C	0.877365	0.911869	0.00464
207	C	0.900722	0.961063	0.006159
208	N	0.95279	0.951488	0.007682
209	C	0.964389	0.899827	0.00621
210	C	0.013728	0.874203	0.00563
211	C	0.062558	0.900626	0.006142
212	N	0.071829	0.952595	0.007279
213	C	0.123414	0.963858	0.00633
214	C	0.148902	0.915809	0.004668
215	C	0.111577	0.877009	0.004906
216	C	0.147821	0.013709	0.005859
217	C	0.120186	0.061971	0.006357
218	N	0.068112	0.071535	0.007791
219	C	0.056515	0.1232	0.006419
220	C	0.104748	0.148468	0.004831
221	C	0.143541	0.111176	0.005077
222	C	0.007182	0.148832	0.005729
223	C	0.958353	0.122422	0.006118
224	N	0.949094	0.070448	0.007122
225	C	0.897512	0.059184	0.006296
226	C	0.872017	0.10724	0.004753
227	C	0.909338	0.146046	0.004968
228	C	0.873107	0.009334	0.005763
229	C	0.817369	0.007825	0.001568
230	C	0.784269	0.017681	0.705864
231	C	0.729525	0.017309	0.700798
232	C	0.705905	0.006945	0.991307
233	C	0.739508	0.996886	0.953881
234	C	0.794108	0.997455	0.958814
235	C	0.006509	0.204582	0.001472
236	C	0.016458	0.237623	0.705799
237	C	0.016354	0.292376	0.700754
238	C	0.006133	0.316055	0.991269
239	C	0.996041	0.282507	0.953806
240	C	0.996325	0.227906	0.958715
241	C	0.203499	0.015282	0.000991
242	C	0.225926	0.026291	0.958025
243	C	0.28041	0.027399	0.952376
244	C	0.314788	0.017228	0.989242
245	C	0.292012	0.006068	0.698928
246	C	0.237349	0.005195	0.704734
247	C	0.014448	0.818516	0.000715
248	C	0.024946	0.79601	0.957687
249	C	0.00447	0.784747	0.704543
250	C	0.004957	0.730074	0.698757
251	C	0.015613	0.707217	0.98901
252	C	0.02565	0.741524	0.952055
253	H	0.033475	0.727124	0.920179
254	H	0.032186	0.819253	0.93
255	H	0.997198	0.707065	0.726458
256	H	0.996553	0.799841	0.736118
257	H	0.909452	0.835368	0.002613
258	H	0.838423	0.903638	0.003312
259	H	0.978712	0.978452	0.008999
260	H	0.04218	0.044561	0.008719
261	H	0.119574	0.838025	0.003688
262	H	0.188146	0.909309	0.003169
263	H	0.202629	0.033528	0.930375
264	H	0.294747	0.035541	0.920541
265	H	0.22232	0.996835	0.736248
266	H	0.315069	0.99818	0.726564
267	H	0.182486	0.119422	0.003882
268	H	0.111462	0.187678	0.003131
269	H	0.832773	0.113739	0.003302
270	H	0.901343	0.185033	0.003845
271	H	0.024188	0.221931	0.737187
272	H	0.024219	0.314824	0.728779
273	H	0.98914	0.205185	0.930686
274	H	0.988522	0.297559	0.922104
275	H	0.81687	0.99044	0.930785
276	H	0.724499	0.989322	0.922173
277	H	0.707039	0.02521	0.728786
278	H	0.799913	0.025664	0.737227
279	C	0.006593	0.370114	0.984415
280	C	0.368717	0.01786	0.981551
281	C	0.015916	0.653284	0.981339
282	C	0.651852	0.007315	0.984415
283	H	0.004712	0.383064	0.952396
284	H	0.380818	0.023275	0.949679
285	H	0.020409	0.641179	0.949344
286	H	0.638916	0.00523	0.952403
287	C	0.011147	0.486664	0.721071
288	N	0.011653	0.539615	0.717794
289	C	0.010883	0.566084	0.010856
290	C	0.009125	0.535593	0.970607
291	N	0.008549	0.482767	0.973891
292	C	0.009572	0.456375	0.680914
293	H	0.011837	0.46952	0.752547
294	H	0.007928	0.552132	0.938967
295	N	0.008993	0.404289	0.683328
296	N	0.011334	0.618275	0.01272
297	C	0.535346	0.011988	0.721092
298	N	0.482399	0.012553	0.717852
299	C	0.455906	0.011992	0.010925
300	C	0.486349	0.010331	0.970648
301	N	0.539179	0.009692	0.973895
302	C	0.565598	0.010534	0.680911
303	H	0.55252	0.012534	0.752561
304	H	0.469758	0.009236	0.939029
305	N	0.617676	0.00993	0.683307
306	N	0.403727	0.012397	0.01282
