data_C168H108N42_2018-02-15_10:47:45
#******************************************
#
# CIF file created by Zeo++
# Zeo++ is an open source package to
# analyze microporous materials
#
#*******************************************

_cell_length_a		25.656   
_cell_length_b		25.6558   
_cell_length_c		29.2758   
_cell_angle_alpha		90   
_cell_angle_beta		90   
_cell_angle_gamma		90.0373   

_symmetry_space_group_name_H-M		'P1'
_symmetry_Int_Tables_number		1
_symmetry_cell_setting		Monoclinic

loop_
_symmetry_equiv_pos_as_xyz
'+x,+y,+z'

loop_
_atom_site_label
_atom_site_type_symbol
_atom_site_fract_x
_atom_site_fract_y
_atom_site_fract_z
1	C	0.784469	0.019442	0.038601
2	C	0.729707	0.01564	0.034731
3	C	0.017796	0.238261	0.038335
4	C	0.01428	0.293047	0.034526
5	C	0.292066	0.005719	0.033144
6	C	0.237316	0.005181	0.038412
7	C	0.00425	0.785655	0.038483
8	C	0.004585	0.730896	0.033234
9	H	0.99649	0.708273	0.061134
10	H	0.996063	0.801172	0.069879
11	H	0.22184	0.996571	0.069742
12	H	0.314714	0.997393	0.060969
13	H	0.027799	0.222266	0.069137
14	H	0.021656	0.315292	0.062823
15	H	0.707386	0.023106	0.062957
16	H	0.800363	0.02984	0.069349
17	N	0.01096	0.48324	0.048788
18	C	0.009053	0.536074	0.052368
19	H	0.005712	0.552881	0.083879
20	N	0.011797	0.618847	0.015288
21	N	0.539605	0.011897	0.048806
22	C	0.486766	0.010061	0.052331
23	H	0.46991	0.006611	0.083815
24	N	0.404055	0.013026	0.015193
25	C	0.916465	0.875132	0.338483
26	C	0.877657	0.912402	0.338669
27	C	0.900942	0.961682	0.338994
28	N	0.953053	0.952144	0.340083
29	C	0.964697	0.900448	0.339396
30	C	0.014028	0.874766	0.338774
31	C	0.062847	0.901255	0.339096
32	N	0.072119	0.953251	0.340148
33	C	0.123718	0.964551	0.33928
34	C	0.149198	0.916476	0.337749
35	C	0.111881	0.877658	0.337985
36	C	0.148163	0.014416	0.338778
37	C	0.120478	0.062694	0.338986
38	N	0.068385	0.072307	0.340317
39	C	0.056746	0.123983	0.338694
40	C	0.104994	0.149219	0.336953
41	C	0.143803	0.111918	0.33747
42	C	0.007391	0.149647	0.337937
43	C	0.958558	0.123098	0.338516
44	N	0.949267	0.071094	0.339317
45	C	0.89765	0.059769	0.338681
46	C	0.87214	0.107814	0.337468
47	C	0.909458	0.146629	0.337863
48	C	0.873183	0.00992	0.338193
49	C	0.817304	0.008127	0.334379
50	C	0.705902	0.999814	0.326643
51	C	0.73899	0.988989	0.289068
52	C	0.793573	0.993472	0.292718
53	C	0.006484	0.205537	0.334027
54	C	0.998843	0.316985	0.326395
55	C	0.98813	0.284011	0.288711
56	C	0.992296	0.229403	0.292309
57	C	0.203958	0.015908	0.334427
58	C	0.227062	0.027166	0.291744
59	C	0.281647	0.027945	0.286623
60	C	0.315503	0.01714	0.323748
61	C	0.014723	0.818965	0.334402
62	C	0.025583	0.795817	0.291665
63	C	0.015594	0.707416	0.323779
64	C	0.026161	0.741229	0.286564
65	H	0.034329	0.726378	0.254887
66	H	0.033195	0.818681	0.263778
67	H	0.909732	0.835882	0.33759
68	H	0.838713	0.904026	0.33816
69	H	0.979006	0.979167	0.340345
70	H	0.042432	0.045308	0.341538
71	H	0.119901	0.838661	0.33693
72	H	0.188452	0.909955	0.336334
73	H	0.204163	0.034814	0.263894
74	H	0.29647	0.036351	0.254977
75	H	0.182758	0.120169	0.33626
76	H	0.111708	0.188426	0.335021
77	H	0.832874	0.114323	0.336358
78	H	0.901334	0.185608	0.337185
79	H	0.983597	0.206978	0.264395
80	H	0.976638	0.299508	0.258079
81	H	0.816077	0.984842	0.264844
82	H	0.72359	0.977269	0.258459
83	C	0.991351	0.370719	0.322103
84	C	0.369583	0.017693	0.316685
85	C	0.016067	0.65333	0.316739
86	C	0.65217	0.992306	0.322256
87	H	0.96436	0.38301	0.300143
88	H	0.382342	0.022545	0.284832
89	H	0.020578	0.640573	0.284852
90	H	0.639875	0.965369	0.300233
91	C	0.015422	0.457172	0.341821
92	C	0.012343	0.566734	0.012563
93	N	0.017763	0.540541	0.305706
94	C	0.019691	0.487629	0.301385
95	N	0.027329	0.467922	0.259012
96	H	0.032303	0.430913	0.25384
97	H	0.03111	0.491063	0.232876
98	N	0.018045	0.405172	0.344059
99	C	0.565731	0.016467	0.341876
100	C	0.456164	0.013535	0.012504
101	N	0.482415	0.019034	0.30568
102	C	0.535339	0.02091	0.301421
103	N	0.555137	0.028589	0.259082
104	H	0.592165	0.033637	0.254005
105	H	0.532049	0.032607	0.232945
106	N	0.617728	0.019009	0.344172
107	C	0.916465	0.875132	0.671817
108	C	0.877657	0.912402	0.672002
109	C	0.900942	0.961682	0.672326
110	N	0.953053	0.952144	0.673416
111	C	0.964697	0.900448	0.672729
112	C	0.014028	0.874766	0.672108
113	C	0.062847	0.901255	0.672429
114	N	0.072119	0.953251	0.673481
115	C	0.123718	0.964551	0.672613
116	C	0.149198	0.916476	0.671083
117	C	0.111881	0.877658	0.671319
118	C	0.148163	0.014416	0.672111
119	C	0.120478	0.062694	0.67232
120	N	0.068385	0.072307	0.673652
121	C	0.056746	0.123983	0.672026
122	C	0.104994	0.149219	0.670287
123	C	0.143803	0.111918	0.670803
124	C	0.007391	0.149647	0.671271
125	C	0.958558	0.123098	0.671848
126	N	0.949267	0.071094	0.672651
127	C	0.89765	0.059769	0.672016
128	C	0.87214	0.107814	0.670803
129	C	0.909458	0.146629	0.671196
130	C	0.873183	0.00992	0.671527
131	C	0.817304	0.008127	0.667712
132	C	0.784469	0.019442	0.371935
133	C	0.729707	0.01564	0.368065
134	C	0.705902	0.999814	0.659978
135	C	0.73899	0.988989	0.622401
136	C	0.793573	0.993472	0.626053
137	C	0.006484	0.205537	0.66736
138	C	0.017796	0.238261	0.371669
139	C	0.01428	0.293047	0.36786
140	C	0.998843	0.316985	0.659729
141	C	0.98813	0.284011	0.622046
142	C	0.992296	0.229403	0.625643
143	C	0.203958	0.015908	0.667759
144	C	0.227062	0.027166	0.625079
145	C	0.281647	0.027945	0.619956
146	C	0.315503	0.01714	0.657082
147	C	0.292066	0.005719	0.366477
148	C	0.237316	0.005181	0.371744
149	C	0.014723	0.818965	0.667736
150	C	0.025583	0.795817	0.624997
151	C	0.00425	0.785655	0.371816
152	C	0.004585	0.730896	0.366565
153	C	0.015594	0.707416	0.657112
154	C	0.026161	0.741229	0.619897
155	H	0.034329	0.726378	0.588219
156	H	0.033195	0.818681	0.597111
157	H	0.99649	0.708273	0.394466
158	H	0.996063	0.801172	0.403213
159	H	0.909732	0.835882	0.670923
160	H	0.838713	0.904026	0.671493
161	H	0.979006	0.979167	0.673679
162	H	0.042432	0.045308	0.674871
163	H	0.119901	0.838661	0.670263
164	H	0.188452	0.909955	0.669669
165	H	0.204163	0.034814	0.597227
166	H	0.29647	0.036351	0.588312
167	H	0.22184	0.996571	0.403073
168	H	0.314714	0.997393	0.394302
169	H	0.182758	0.120169	0.669594
170	H	0.111708	0.188426	0.668354
171	H	0.832874	0.114323	0.669693
172	H	0.901334	0.185608	0.670519
173	H	0.027799	0.222266	0.402472
174	H	0.021656	0.315292	0.396156
175	H	0.983597	0.206978	0.597729
176	H	0.976638	0.299508	0.591413
177	H	0.816077	0.984842	0.598176
178	H	0.72359	0.977269	0.591792
179	H	0.707386	0.023106	0.39629
180	H	0.800363	0.02984	0.402684
181	C	0.991351	0.370719	0.655435
182	C	0.369583	0.017693	0.650018
183	C	0.016067	0.65333	0.650073
184	C	0.65217	0.992306	0.655589
185	H	0.96436	0.38301	0.633475
186	H	0.382342	0.022545	0.618166
187	H	0.020578	0.640573	0.618186
188	H	0.639875	0.965369	0.633567
189	C	0.015422	0.457172	0.675155
190	N	0.01096	0.48324	0.382121
191	C	0.009053	0.536074	0.385701
192	C	0.012343	0.566734	0.345896
193	N	0.017763	0.540541	0.63904
194	C	0.019691	0.487629	0.634719
195	H	0.005712	0.552881	0.417211
196	N	0.027329	0.467922	0.592346
197	H	0.032303	0.430913	0.587174
198	H	0.03111	0.491063	0.566208
199	N	0.018045	0.405172	0.677392
200	N	0.011797	0.618847	0.348622
201	C	0.565731	0.016467	0.675209
202	N	0.539605	0.011897	0.382138
203	C	0.486766	0.010061	0.385663
204	C	0.456164	0.013535	0.345838
205	N	0.482415	0.019034	0.639016
206	C	0.535339	0.02091	0.634753
207	H	0.46991	0.006611	0.41715
208	N	0.555137	0.028589	0.592414
209	H	0.592165	0.033637	0.587338
210	H	0.532049	0.032607	0.56628
211	N	0.617728	0.019009	0.677505
212	N	0.404055	0.013026	0.348527
213	C	0.916465	0.875132	0.005151
214	C	0.877657	0.912402	0.005335
215	C	0.900942	0.961682	0.00566
216	N	0.953053	0.952144	0.006749
217	C	0.964697	0.900448	0.006063
218	C	0.014028	0.874766	0.005441
219	C	0.062847	0.901255	0.005762
220	N	0.072119	0.953251	0.006814
221	C	0.123718	0.964551	0.005947
222	C	0.149198	0.916476	0.004416
223	C	0.111881	0.877658	0.004652
224	C	0.148163	0.014416	0.005444
225	C	0.120478	0.062694	0.005653
226	N	0.068385	0.072307	0.006985
227	C	0.056746	0.123983	0.005362
228	C	0.104994	0.149219	0.00362
229	C	0.143803	0.111918	0.004136
230	C	0.007391	0.149647	0.004604
231	C	0.958558	0.123098	0.005185
232	N	0.949267	0.071094	0.005984
233	C	0.89765	0.059769	0.005349
234	C	0.87214	0.107814	0.004136
235	C	0.909458	0.146629	0.004529
236	C	0.873183	0.00992	0.00486
237	C	0.817304	0.008127	0.001045
238	C	0.784469	0.019442	0.705268
239	C	0.729707	0.01564	0.701398
240	C	0.705902	0.999814	0.993312
241	C	0.73899	0.988989	0.955734
242	C	0.793573	0.993472	0.959386
243	C	0.006484	0.205537	0.000693
244	C	0.017796	0.238261	0.705002
245	C	0.01428	0.293047	0.701193
246	C	0.998843	0.316985	0.993062
247	C	0.98813	0.284011	0.955379
248	C	0.992296	0.229403	0.958976
249	C	0.203958	0.015908	0.001093
250	C	0.227062	0.027166	0.958412
251	C	0.281647	0.027945	0.953289
252	C	0.315503	0.01714	0.990415
253	C	0.292066	0.005719	0.69981
254	C	0.237316	0.005181	0.70508
255	C	0.014723	0.818965	0.001069
256	C	0.025583	0.795817	0.95833
257	C	0.00425	0.785655	0.705149
258	C	0.004585	0.730896	0.699902
259	C	0.015594	0.707416	0.990446
260	C	0.026161	0.741229	0.953231
261	H	0.034329	0.726378	0.921553
262	H	0.033195	0.818681	0.930444
263	H	0.99649	0.708273	0.727802
264	H	0.996063	0.801172	0.736547
265	H	0.909732	0.835882	0.004256
266	H	0.838713	0.904026	0.004826
267	H	0.979006	0.979167	0.007012
268	H	0.042432	0.045308	0.008204
269	H	0.119901	0.838661	0.003596
270	H	0.188452	0.909955	0.003002
271	H	0.204163	0.034814	0.93056
272	H	0.29647	0.036351	0.921645
273	H	0.22184	0.996571	0.73641
274	H	0.314714	0.997393	0.727635
275	H	0.182758	0.120169	0.002927
276	H	0.111708	0.188426	0.001687
277	H	0.832874	0.114323	0.003026
278	H	0.901334	0.185608	0.003853
279	H	0.027799	0.222266	0.735805
280	H	0.021656	0.315292	0.72949
281	H	0.983597	0.206978	0.931062
282	H	0.976638	0.299508	0.924746
283	H	0.816077	0.984842	0.93151
284	H	0.72359	0.977269	0.925126
285	H	0.707386	0.023106	0.729623
286	H	0.800363	0.02984	0.736017
287	C	0.991351	0.370719	0.988769
288	C	0.369583	0.017693	0.983351
289	C	0.016067	0.65333	0.983406
290	C	0.65217	0.992306	0.988922
291	H	0.96436	0.38301	0.966808
292	H	0.382342	0.022545	0.951499
293	H	0.020578	0.640573	0.951519
294	H	0.639875	0.965369	0.966901
295	C	0.015422	0.457172	0.008488
296	N	0.01096	0.48324	0.715454
297	C	0.009053	0.536074	0.719034
298	C	0.012343	0.566734	0.67923
299	N	0.017763	0.540541	0.972373
300	C	0.019691	0.487629	0.968052
301	H	0.005712	0.552881	0.750548
302	N	0.027329	0.467922	0.925679
303	H	0.032303	0.430913	0.920507
304	H	0.03111	0.491063	0.899541
305	N	0.018045	0.405172	0.010725
306	N	0.011797	0.618847	0.681956
307	C	0.565731	0.016467	0.008543
308	N	0.539605	0.011897	0.715475
309	C	0.486766	0.010061	0.718996
310	C	0.456164	0.013535	0.679172
311	N	0.482415	0.019034	0.972349
312	C	0.535339	0.02091	0.968086
313	H	0.46991	0.006611	0.750483
314	N	0.555137	0.028589	0.925747
315	H	0.592165	0.033637	0.920671
316	H	0.532049	0.032607	0.899613
317	N	0.617728	0.019009	0.010838
318	N	0.404055	0.013026	0.68186
