data_C174H138N36_2018-02-15_10:34:41
#******************************************
#
# CIF file created by Zeo++
# Zeo++ is an open source package to
# analyze microporous materials
#
#*******************************************

_cell_length_a		25.2451   
_cell_length_b		25.2468   
_cell_length_c		30.0258   
_cell_angle_alpha		90   
_cell_angle_beta		90   
_cell_angle_gamma		90.0377   

_symmetry_space_group_name_H-M		'P1'
_symmetry_Int_Tables_number		1
_symmetry_cell_setting		Monoclinic

loop_
_symmetry_equiv_pos_as_xyz
'+x,+y,+z'

loop_
_atom_site_label
_atom_site_type_symbol
_atom_site_fract_x
_atom_site_fract_y
_atom_site_fract_z
1	C	0.918352	0.850396	0.998209
2	C	0.875055	0.883608	0.000482
3	C	0.893433	0.935753	0.002762
4	N	0.946998	0.932196	0.002149
5	C	0.964199	0.881445	0.999498
6	C	0.01687	0.86153	0.997812
7	C	0.06332	0.893268	0.997812
8	N	0.066566	0.946649	0.999271
9	C	0.117297	0.963646	0.997989
10	C	0.14867	0.918182	0.995638
11	C	0.115431	0.874803	0.995951
12	C	0.135846	0.01672	0.998765
13	C	0.102887	0.062306	0.001201
14	N	0.049318	0.06583	0.001126
15	C	0.032062	0.116516	0.004332
16	C	0.077816	0.147601	0.006526
17	C	0.121157	0.114421	0.004657
18	C	0.979399	0.136423	0.00558
19	C	0.932926	0.104822	0.005143
20	N	0.929758	0.051444	0.004065
21	C	0.879036	0.03449	0.005208
22	C	0.847594	0.079957	0.006893
23	C	0.880837	0.123353	0.006731
24	C	0.860586	0.981402	0.00497
25	C	0.804962	0.973476	0.008436
26	C	0.781231	0.96807	0.050778
27	C	0.726143	0.961277	0.054623
28	C	0.69364	0.95993	0.016293
29	C	0.717672	0.965127	0.307295
30	C	0.7728	0.971793	0.303328
31	C	0.972567	0.192146	0.009436
32	C	0.96802	0.21579	0.051883
33	C	0.961651	0.270904	0.055899
34	C	0.959858	0.303507	0.017642
35	C	0.964314	0.27957	0.308552
36	C	0.970545	0.224427	0.304416
37	C	0.191575	0.024823	0.995944
38	C	0.214683	0.040208	0.288434
39	C	0.269672	0.0481	0.285217
40	C	0.302817	0.04031	0.989263
41	C	0.279551	0.024715	0.03005
42	C	0.224452	0.017378	0.033493
43	C	0.023752	0.805685	0.994409
44	C	0.036399	0.782439	0.286298
45	C	0.018193	0.772857	0.032224
46	C	0.024952	0.717722	0.028532
47	C	0.038237	0.694376	0.987211
48	C	0.043901	0.72743	0.282835
49	H	0.05292	0.711634	0.252389
50	H	0.040471	0.805432	0.258418
51	H	0.020456	0.694669	0.056316
52	H	0.008948	0.788839	0.062581
53	H	0.915961	0.810082	0.995824
54	H	0.836552	0.871068	0.99989
55	H	0.970182	0.962275	0.004031
56	H	0.026177	0.035856	0.997986
57	H	0.127895	0.836331	0.994562
58	H	0.18906	0.916166	0.994089
59	H	0.191654	0.045626	0.260737
60	H	0.285401	0.05883	0.255135
61	H	0.208554	0.006138	0.063405
62	H	0.302676	0.018623	0.057574
63	H	0.159617	0.126987	0.006142
64	H	0.080071	0.187881	0.00943
65	H	0.80718	0.081894	0.008156
66	H	0.868464	0.161864	0.008076
67	H	0.969546	0.193091	0.080112
68	H	0.958885	0.287089	0.087048
69	H	0.973841	0.208066	0.27334
70	H	0.963252	0.302273	0.280325
71	H	0.789218	0.975833	0.272336
72	H	0.695026	0.964481	0.279026
73	H	0.70988	0.958092	0.085716
74	H	0.803818	0.969476	0.079079
75	C	0.954537	0.361927	0.021464
76	H	0.946761	0.373705	0.05594
77	H	0.920459	0.374311	0.334826
78	C	0.635198	0.954571	0.020001
79	H	0.623408	0.946012	0.054346
80	H	0.622722	0.920979	0.332815
81	C	0.044882	0.636088	0.983601
82	H	0.072332	0.623124	0.009619
83	H	0.062678	0.625544	0.284991
84	C	0.361144	0.046899	0.985769
85	H	0.374253	0.0733	0.0125
86	H	0.371774	0.065825	0.287629
87	C	4.6e-05	0.443869	0.001836
88	N	0.001635	0.46592	0.294
89	C	0.999568	0.518972	0.286222
90	C	0.995748	0.553139	0.32369
91	N	0.993765	0.530993	0.031563
92	C	0.995841	0.478056	0.03877
93	H	0.994726	0.463702	0.070551
94	C	0.999823	0.537446	0.239509
95	H	0.000563	0.504095	0.216352
96	H	0.034694	0.561706	0.233105
97	H	0.964285	0.560641	0.232743
98	N	0.993111	0.608936	0.322306
99	H	0.966349	0.620902	0.298606
100	N	0.003391	0.388332	0.005169
101	H	0.034977	0.378864	0.025242
102	C	0.553315	0.000771	0.001519
103	N	0.530841	0.003266	0.293876
104	C	0.477689	0.001617	0.286475
105	C	0.443894	0.997234	0.324139
106	N	0.466455	0.994382	0.031815
107	C	0.51948	0.996077	0.038649
108	H	0.534159	0.994315	0.070305
109	C	0.458692	0.002855	0.239925
110	H	0.491781	0.004155	0.216516
111	H	0.434334	0.037808	0.234262
112	H	0.435429	0.967428	0.232806
113	N	0.388066	0.994865	0.323101
114	H	0.375694	0.968894	0.298921
115	N	0.608908	0.00382	0.0045
116	H	0.61872	0.034998	0.024919
117	C	0.918352	0.850396	0.331541
118	C	0.875055	0.883608	0.333816
119	C	0.893433	0.935753	0.336094
120	N	0.946998	0.932196	0.335482
121	C	0.964199	0.881445	0.332831
122	C	0.01687	0.86153	0.331145
123	C	0.06332	0.893268	0.331146
124	N	0.066566	0.946649	0.332604
125	C	0.117297	0.963646	0.331322
126	C	0.14867	0.918182	0.328972
127	C	0.115431	0.874803	0.329284
128	C	0.135846	0.01672	0.3321
129	C	0.102887	0.062306	0.334532
130	N	0.049318	0.06583	0.334459
131	C	0.032062	0.116516	0.337666
132	C	0.077816	0.147601	0.339861
133	C	0.121157	0.114421	0.337989
134	C	0.979399	0.136423	0.338912
135	C	0.932926	0.104822	0.338476
136	N	0.929758	0.051444	0.337397
137	C	0.879036	0.03449	0.338542
138	C	0.847594	0.079957	0.340224
139	C	0.880837	0.123353	0.340064
140	C	0.860586	0.981402	0.338303
141	C	0.804962	0.973476	0.34177
142	C	0.781231	0.96807	0.38411
143	C	0.726143	0.961277	0.387957
144	C	0.69364	0.95993	0.349626
145	C	0.717672	0.965127	0.640629
146	C	0.7728	0.971793	0.636663
147	C	0.972567	0.192146	0.342769
148	C	0.96802	0.21579	0.385216
149	C	0.961651	0.270904	0.389232
150	C	0.959858	0.303507	0.350975
151	C	0.964314	0.27957	0.641885
152	C	0.970545	0.224427	0.637749
153	C	0.191575	0.024823	0.329278
154	C	0.214683	0.040208	0.621769
155	C	0.269672	0.0481	0.618548
156	C	0.302817	0.04031	0.322595
157	C	0.279551	0.024715	0.363384
158	C	0.224452	0.017378	0.366825
159	C	0.023752	0.805685	0.327743
160	C	0.036399	0.782439	0.619631
161	C	0.018193	0.772857	0.365556
162	C	0.024952	0.717722	0.361866
163	C	0.038237	0.694376	0.320545
164	C	0.043901	0.72743	0.616167
165	H	0.05292	0.711634	0.585723
166	H	0.040471	0.805432	0.591751
167	H	0.020456	0.694669	0.389648
168	H	0.008948	0.788839	0.395913
169	H	0.915961	0.810082	0.329156
170	H	0.836552	0.871068	0.333224
171	H	0.970182	0.962275	0.337363
172	H	0.026177	0.035856	0.33132
173	H	0.127895	0.836331	0.327895
174	H	0.18906	0.916166	0.327421
175	H	0.191654	0.045626	0.594069
176	H	0.285401	0.05883	0.588468
177	H	0.208554	0.006138	0.396739
178	H	0.302676	0.018623	0.390907
179	H	0.159617	0.126987	0.339475
180	H	0.080071	0.187881	0.342762
181	H	0.80718	0.081894	0.34149
182	H	0.868464	0.161864	0.34141
183	H	0.969546	0.193091	0.413445
184	H	0.958885	0.287089	0.420382
185	H	0.973841	0.208066	0.606675
186	H	0.963252	0.302273	0.613659
187	H	0.789218	0.975833	0.605669
188	H	0.695026	0.964481	0.61236
189	H	0.70988	0.958092	0.41905
190	H	0.803818	0.969476	0.412412
191	C	0.954537	0.361927	0.354798
192	H	0.946761	0.373705	0.389272
193	H	0.920459	0.374311	0.668159
194	C	0.635198	0.954571	0.353333
195	H	0.623408	0.946012	0.38768
196	H	0.622722	0.920979	0.666147
197	C	0.044882	0.636088	0.316936
198	H	0.072332	0.623124	0.342952
199	H	0.062678	0.625544	0.618325
200	C	0.361144	0.046899	0.319103
201	H	0.374253	0.0733	0.345833
202	H	0.371774	0.065825	0.620963
203	C	4.6e-05	0.443869	0.335169
204	N	0.001635	0.46592	0.627334
205	C	0.999568	0.518972	0.619554
206	C	0.995748	0.553139	0.657022
207	N	0.993765	0.530993	0.364896
208	C	0.995841	0.478056	0.372103
209	H	0.994726	0.463702	0.403883
210	C	0.999823	0.537446	0.572841
211	H	0.000563	0.504095	0.549684
212	H	0.034694	0.561706	0.56644
213	H	0.964285	0.560641	0.566077
214	N	0.993111	0.608936	0.65564
215	H	0.966349	0.620902	0.63194
216	N	0.003391	0.388332	0.338502
217	H	0.034977	0.378864	0.358575
218	C	0.553315	0.000771	0.334852
219	N	0.530841	0.003266	0.627208
220	C	0.477689	0.001617	0.619807
221	C	0.443894	0.997234	0.657472
222	N	0.466455	0.994382	0.365149
223	C	0.51948	0.996077	0.37198
224	H	0.534159	0.994315	0.403636
225	C	0.458692	0.002855	0.573257
226	H	0.491781	0.004155	0.549847
227	H	0.434334	0.037808	0.567595
228	H	0.435429	0.967428	0.56614
229	N	0.388066	0.994865	0.656436
230	H	0.375694	0.968894	0.632253
231	N	0.608908	0.00382	0.337833
232	H	0.61872	0.034998	0.358252
233	C	0.918352	0.850396	0.664875
234	C	0.875055	0.883608	0.66715
235	C	0.893433	0.935753	0.669428
236	N	0.946998	0.932196	0.668815
237	C	0.964199	0.881445	0.666164
238	C	0.01687	0.86153	0.664479
239	C	0.06332	0.893268	0.664479
240	N	0.066566	0.946649	0.665938
241	C	0.117297	0.963646	0.664655
242	C	0.14867	0.918182	0.662304
243	C	0.115431	0.874803	0.662617
244	C	0.135846	0.01672	0.665431
245	C	0.102887	0.062306	0.667866
246	N	0.049318	0.06583	0.667793
247	C	0.032062	0.116516	0.670997
248	C	0.077816	0.147601	0.673191
249	C	0.121157	0.114421	0.671323
250	C	0.979399	0.136423	0.672246
251	C	0.932926	0.104822	0.671809
252	N	0.929758	0.051444	0.67073
253	C	0.879036	0.03449	0.671873
254	C	0.847594	0.079957	0.673558
255	C	0.880837	0.123353	0.673398
256	C	0.860586	0.981402	0.671636
257	C	0.804962	0.973476	0.675103
258	C	0.781231	0.96807	0.717443
259	C	0.726143	0.961277	0.72129
260	C	0.69364	0.95993	0.68296
261	C	0.717672	0.965127	0.973963
262	C	0.7728	0.971793	0.969996
263	C	0.972567	0.192146	0.676102
264	C	0.96802	0.21579	0.718549
265	C	0.961651	0.270904	0.722566
266	C	0.959858	0.303507	0.684308
267	C	0.964314	0.27957	0.975218
268	C	0.970545	0.224427	0.971082
269	C	0.191575	0.024823	0.66261
270	C	0.214683	0.040208	0.955102
271	C	0.269672	0.0481	0.951882
272	C	0.302817	0.04031	0.65593
273	C	0.279551	0.024715	0.696718
274	C	0.224452	0.017378	0.700158
275	C	0.023752	0.805685	0.661075
276	C	0.036399	0.782439	0.952964
277	C	0.018193	0.772857	0.698889
278	C	0.024952	0.717722	0.695199
279	C	0.038237	0.694376	0.653878
280	C	0.043901	0.72743	0.949501
281	H	0.05292	0.711634	0.919053
282	H	0.040471	0.805432	0.925085
283	H	0.020456	0.694669	0.722982
284	H	0.008948	0.788839	0.729247
285	H	0.915961	0.810082	0.662491
286	H	0.836552	0.871068	0.666557
287	H	0.970182	0.962275	0.670697
288	H	0.026177	0.035856	0.664652
289	H	0.127895	0.836331	0.661228
290	H	0.18906	0.916166	0.660755
291	H	0.191654	0.045626	0.927403
292	H	0.285401	0.05883	0.921801
293	H	0.208554	0.006138	0.730072
294	H	0.302676	0.018623	0.724241
295	H	0.159617	0.126987	0.672808
296	H	0.080071	0.187881	0.676096
297	H	0.80718	0.081894	0.674823
298	H	0.868464	0.161864	0.674743
299	H	0.969546	0.193091	0.746778
300	H	0.958885	0.287089	0.753712
301	H	0.973841	0.208066	0.940005
302	H	0.963252	0.302273	0.946993
303	H	0.789218	0.975833	0.939003
304	H	0.695026	0.964481	0.94569
305	H	0.70988	0.958092	0.752383
306	H	0.803818	0.969476	0.745746
307	C	0.954537	0.361927	0.688132
308	H	0.946761	0.373705	0.722606
309	H	0.920459	0.374311	0.001492
310	C	0.635198	0.954571	0.686666
311	H	0.623408	0.946012	0.721014
312	H	0.622722	0.920979	0.999481
313	C	0.044882	0.636088	0.650268
314	H	0.072332	0.623124	0.676285
315	H	0.062678	0.625544	0.951659
316	C	0.361144	0.046899	0.652436
317	H	0.374253	0.0733	0.679166
318	H	0.371774	0.065825	0.954296
319	C	4.6e-05	0.443869	0.668502
320	N	0.001635	0.46592	0.960668
321	C	0.999568	0.518972	0.952888
322	C	0.995748	0.553139	0.990355
323	N	0.993765	0.530993	0.69823
324	C	0.995841	0.478056	0.705437
325	H	0.994726	0.463702	0.737216
326	C	0.999823	0.537446	0.906174
327	H	0.000563	0.504095	0.883018
328	H	0.034694	0.561706	0.89977
329	H	0.964285	0.560641	0.89941
330	N	0.993111	0.608936	0.988973
331	H	0.966349	0.620902	0.965274
332	N	0.003391	0.388332	0.671836
333	H	0.034977	0.378864	0.691909
334	C	0.553315	0.000771	0.668186
335	N	0.530841	0.003266	0.960541
336	C	0.477689	0.001617	0.953141
337	C	0.443894	0.997234	0.990805
338	N	0.466455	0.994382	0.698483
339	C	0.51948	0.996077	0.705314
340	H	0.534159	0.994315	0.73697
341	C	0.458692	0.002855	0.906591
342	H	0.491781	0.004155	0.883181
343	H	0.434334	0.037808	0.900929
344	H	0.435429	0.967428	0.899474
345	N	0.388066	0.994865	0.989766
346	H	0.375694	0.968894	0.965587
347	N	0.608908	0.00382	0.671166
348	H	0.61872	0.034998	0.691586
