data_C198H126N18O9_2018-02-15_10:41:36
#******************************************
#
# CIF file created by Zeo++
# Zeo++ is an open source package to
# analyze microporous materials
#
#*******************************************

_cell_length_a		29.9298   
_cell_length_b		29.9298   
_cell_length_c		29.7976   
_cell_angle_alpha		90   
_cell_angle_beta		90   
_cell_angle_gamma		120   

_symmetry_space_group_name_H-M		'P1'
_symmetry_Int_Tables_number		1
_symmetry_cell_setting		Monoclinic

loop_
_symmetry_equiv_pos_as_xyz
'+x,+y,+z'

loop_
_atom_site_label
_atom_site_type_symbol
_atom_site_fract_x
_atom_site_fract_y
_atom_site_fract_z
1	C	0.028573	0.515132	0.297866
2	C	0.058728	0.530213	0.003728
3	N	0.033502	0.517601	0.043584
4	H	0.044973	0.523331	0.266673
5	C	0.028573	0.515132	0.631199
6	C	0.058728	0.530213	0.337061
7	N	0.033502	0.517601	0.376917
8	H	0.044973	0.523331	0.600005
9	C	0.028573	0.515132	0.964531
10	C	0.058728	0.530213	0.670393
11	N	0.033502	0.517601	0.710249
12	H	0.044973	0.523331	0.933338
13	C	0.282069	0.641884	0.003353
14	C	0.311824	0.616853	0.00333
15	C	0.366611	0.641884	0.003347
16	C	0.391638	0.696668	0.00334
17	C	0.366611	0.726425	0.00336
18	C	0.311826	0.696668	0.003357
19	C	0.395042	0.61345	0.00328
20	C	0.369932	0.558358	0.003293
21	C	0.396879	0.530946	0.003199
22	C	0.451103	0.557389	0.002944
23	C	0.477547	0.611614	0.003192
24	C	0.450134	0.638558	0.00328
25	C	0.225203	0.61345	0.003283
26	C	0.19522	0.558358	0.003296
27	C	0.140862	0.530946	0.003206
28	C	0.113081	0.557389	0.002947
29	C	0.140863	0.611614	0.003189
30	C	0.19522	0.638558	0.00328
31	C	0.395043	0.783289	0.00329
32	C	0.369934	0.813273	0.003283
33	C	0.39688	0.867629	0.003189
34	C	0.451104	0.895411	0.002941
35	C	0.477546	0.867629	0.003202
36	C	0.450136	0.813273	0.003296
37	H	0.121707	0.491425	0.003394
38	H	0.211713	0.535819	0.003494
39	H	0.121709	0.63198	0.00336
40	H	0.211714	0.67759	0.003444
41	H	0.330903	0.79678	0.003456
42	H	0.376513	0.886784	0.003363
43	H	0.472673	0.79678	0.00349
44	H	0.517068	0.886784	0.003387
45	H	0.472672	0.67759	0.003457
46	H	0.517067	0.63198	0.003367
47	H	0.376512	0.491425	0.003384
48	H	0.330901	0.535819	0.003478
49	H	0.292491	0.578188	0.003212
50	H	0.292492	0.716001	0.00329
51	H	0.430305	0.716001	0.003243
52	C	0.728126	0.364912	0.000706
53	C	0.698367	0.389939	0.000591
54	C	0.643585	0.364912	0.000625
55	C	0.618555	0.310128	0.000638
56	C	0.643584	0.280371	0.000716
57	C	0.698368	0.310127	0.000873
58	C	0.615157	0.393342	0.001269
59	C	0.64027	0.448427	0.001756
60	C	0.613349	0.475815	0.003677
61	C	0.559163	0.449333	0.005911
62	C	0.532681	0.395147	0.003662
63	C	0.56007	0.368228	0.001712
64	C	0.784981	0.393342	0.001333
65	C	0.814952	0.448427	0.00185
66	C	0.869262	0.475815	0.003723
67	C	0.896968	0.44933	0.005919
68	C	0.869262	0.395147	0.003595
69	C	0.814958	0.368231	0.001655
70	C	0.615155	0.223514	0.001347
71	C	0.640264	0.193538	0.001662
72	C	0.613349	0.139233	0.003618
73	C	0.559165	0.111528	0.005928
74	C	0.53268	0.139233	0.003716
75	C	0.560068	0.193542	0.001843
76	H	0.888391	0.515317	0.004665
77	H	0.798477	0.470973	0.001185
78	H	0.888397	0.374772	0.00438
79	H	0.798485	0.329216	0.000709
80	H	0.679279	0.21001	0.000722
81	H	0.633722	0.120098	0.004384
82	H	0.537524	0.210017	0.001152
83	H	0.493177	0.120106	0.004647
84	H	0.537524	0.32921	0.000904
85	H	0.493174	0.37477	0.004496
86	H	0.633727	0.515321	0.004559
87	H	0.679288	0.470973	0.001004
88	H	0.717702	0.428608	0.000662
89	H	0.7177	0.290795	0.001451
90	H	0.579887	0.290794	0.000799
91	C	0.531979	0.476513	0.008861
92	N	0.519395	0.489098	0.302092
93	C	0.493358	0.515136	0.297864
94	C	0.47828	0.530213	0.003726
95	N	0.490891	0.517597	0.043582
96	C	0.517068	0.491425	0.049169
97	H	0.48516	0.523338	0.266671
98	C	0.525886	0.482601	0.093774
99	C	0.552643	0.455854	0.108297
100	H	0.532604	0.416255	0.095997
101	H	0.554327	0.454168	0.144884
102	H	0.592242	0.4759	0.096
103	O	0.509857	0.498628	0.124071
104	C	0.531983	0.057163	0.008866
105	N	0.5194	0.031998	0.302096
106	C	0.493362	0.979925	0.297864
107	C	0.47828	0.949763	0.003724
108	N	0.490892	0.974986	0.043582
109	C	0.517067	0.027338	0.049172
110	H	0.485161	0.963524	0.26667
111	C	0.525889	0.044975	0.093778
112	C	0.552641	0.09848	0.108303
113	H	0.592236	0.118044	0.095994
114	H	0.554335	0.101848	0.144891
115	H	0.532587	0.11803	0.096018
116	O	0.509867	0.012919	0.124074
117	C	0.95133	0.476509	0.008863
118	N	0.9765	0.489094	0.302094
119	C	0.981155	0.491428	0.049171
120	C	0.963513	0.482605	0.093776
121	C	0.910006	0.455846	0.108297
122	H	0.890453	0.4759	0.096015
123	H	0.906634	0.454141	0.144884
124	H	0.890447	0.416255	0.095982
125	O	0.995567	0.498628	0.124073
126	C	0.282069	0.641884	0.336688
127	C	0.311824	0.616853	0.336662
128	C	0.366611	0.641884	0.336682
129	C	0.391638	0.696668	0.336675
130	C	0.366611	0.726425	0.336695
131	C	0.311826	0.696668	0.336692
132	C	0.395042	0.61345	0.336611
133	C	0.369932	0.558358	0.336625
134	C	0.396879	0.530946	0.336534
135	C	0.451103	0.557389	0.336279
136	C	0.477547	0.611614	0.336527
137	C	0.450134	0.638558	0.336615
138	C	0.225203	0.61345	0.336618
139	C	0.19522	0.558358	0.336631
140	C	0.140862	0.530946	0.336541
141	C	0.113081	0.557389	0.336282
142	C	0.140863	0.611614	0.336524
143	C	0.19522	0.638558	0.336615
144	C	0.395043	0.783289	0.336625
145	C	0.369934	0.813273	0.336618
146	C	0.39688	0.867629	0.336524
147	C	0.451104	0.895411	0.336272
148	C	0.477546	0.867629	0.336537
149	C	0.450136	0.813273	0.336631
150	H	0.121707	0.491425	0.336725
151	H	0.211713	0.535819	0.336826
152	H	0.121709	0.63198	0.336695
153	H	0.211714	0.67759	0.336776
154	H	0.330903	0.79678	0.336789
155	H	0.376513	0.886784	0.336699
156	H	0.472673	0.79678	0.336823
157	H	0.517068	0.886784	0.336719
158	H	0.472672	0.67759	0.336789
159	H	0.517067	0.63198	0.336702
160	H	0.376512	0.491425	0.336715
161	H	0.330901	0.535819	0.336813
162	H	0.292491	0.578188	0.336544
163	H	0.292492	0.716001	0.336625
164	H	0.430305	0.716001	0.336578
165	C	0.728126	0.364912	0.334039
166	C	0.698367	0.389939	0.333925
167	C	0.643585	0.364912	0.33396
168	C	0.618555	0.310128	0.333973
169	C	0.643584	0.280371	0.334049
170	C	0.698368	0.310127	0.334208
171	C	0.615157	0.393342	0.334603
172	C	0.64027	0.448427	0.335091
173	C	0.613349	0.475815	0.337011
174	C	0.559163	0.449333	0.339246
175	C	0.532681	0.395147	0.336994
176	C	0.56007	0.368228	0.335045
177	C	0.784981	0.393342	0.334668
178	C	0.814952	0.448427	0.335183
179	C	0.869262	0.475815	0.337058
180	C	0.896968	0.44933	0.339252
181	C	0.869262	0.395147	0.33693
182	C	0.814958	0.368231	0.334988
183	C	0.615155	0.223514	0.334682
184	C	0.640264	0.193538	0.334995
185	C	0.613349	0.139233	0.33695
186	C	0.559165	0.111528	0.339262
187	C	0.53268	0.139233	0.337051
188	C	0.560068	0.193542	0.335178
189	H	0.888391	0.515317	0.337997
190	H	0.798477	0.470973	0.33452
191	H	0.888397	0.374772	0.337712
192	H	0.798485	0.329216	0.334042
193	H	0.679279	0.21001	0.334057
194	H	0.633722	0.120098	0.337719
195	H	0.537524	0.210017	0.334487
196	H	0.493177	0.120106	0.337981
197	H	0.537524	0.32921	0.334238
198	H	0.493174	0.37477	0.337829
199	H	0.633727	0.515321	0.337893
200	H	0.679288	0.470973	0.334338
201	H	0.717702	0.428608	0.333997
202	H	0.7177	0.290795	0.334785
203	H	0.579887	0.290794	0.334132
204	C	0.531979	0.476513	0.342192
205	N	0.519395	0.489098	0.635424
206	C	0.493358	0.515136	0.631199
207	C	0.47828	0.530213	0.337058
208	N	0.490891	0.517597	0.376917
209	C	0.517068	0.491425	0.382501
210	H	0.48516	0.523338	0.600005
211	C	0.525886	0.482601	0.427109
212	C	0.552643	0.455854	0.44163
213	H	0.532604	0.416255	0.42933
214	H	0.554327	0.454168	0.478217
215	H	0.592242	0.4759	0.429334
216	O	0.509857	0.498628	0.457403
217	C	0.531983	0.057163	0.342199
218	N	0.5194	0.031998	0.635428
219	C	0.493362	0.979925	0.631199
220	C	0.47828	0.949763	0.337058
221	N	0.490892	0.974986	0.376917
222	C	0.517067	0.027338	0.382504
223	H	0.485161	0.963524	0.600002
224	C	0.525889	0.044975	0.427112
225	C	0.552641	0.09848	0.441637
226	H	0.592236	0.118044	0.429327
227	H	0.554335	0.101848	0.478223
228	H	0.532587	0.11803	0.42935
229	O	0.509867	0.012919	0.457406
230	C	0.95133	0.476509	0.342196
231	N	0.9765	0.489094	0.635428
232	C	0.981155	0.491428	0.382504
233	C	0.963513	0.482605	0.427109
234	C	0.910006	0.455846	0.44163
235	H	0.890453	0.4759	0.429347
236	H	0.906634	0.454141	0.478217
237	H	0.890447	0.416255	0.429317
238	O	0.995567	0.498628	0.457406
239	C	0.282069	0.641884	0.670021
240	C	0.311824	0.616853	0.669994
241	C	0.366611	0.641884	0.670014
242	C	0.391638	0.696668	0.670007
243	C	0.366611	0.726425	0.670028
244	C	0.311826	0.696668	0.670024
245	C	0.395042	0.61345	0.669947
246	C	0.369932	0.558358	0.669961
247	C	0.396879	0.530946	0.669867
248	C	0.451103	0.557389	0.669611
249	C	0.477547	0.611614	0.66986
250	C	0.450134	0.638558	0.669947
251	C	0.225203	0.61345	0.66995
252	C	0.19522	0.558358	0.669964
253	C	0.140862	0.530946	0.669873
254	C	0.113081	0.557389	0.669615
255	C	0.140863	0.611614	0.669856
256	C	0.19522	0.638558	0.669947
257	C	0.395043	0.783289	0.669957
258	C	0.369934	0.813273	0.66995
259	C	0.39688	0.867629	0.669856
260	C	0.451104	0.895411	0.669605
261	C	0.477546	0.867629	0.66987
262	C	0.450136	0.813273	0.669964
263	H	0.121707	0.491425	0.670058
264	H	0.211713	0.535819	0.670162
265	H	0.121709	0.63198	0.670028
266	H	0.211714	0.67759	0.670112
267	H	0.330903	0.79678	0.670122
268	H	0.376513	0.886784	0.670031
269	H	0.472673	0.79678	0.670155
270	H	0.517068	0.886784	0.670054
271	H	0.472672	0.67759	0.670122
272	H	0.517067	0.63198	0.670034
273	H	0.376512	0.491425	0.670048
274	H	0.330901	0.535819	0.670145
275	H	0.292491	0.578188	0.669877
276	H	0.292492	0.716001	0.669957
277	H	0.430305	0.716001	0.66991
278	C	0.728126	0.364912	0.667373
279	C	0.698367	0.389939	0.667259
280	C	0.643585	0.364912	0.667293
281	C	0.618555	0.310128	0.667306
282	C	0.643584	0.280371	0.667383
283	C	0.698368	0.310127	0.667541
284	C	0.615157	0.393342	0.667937
285	C	0.64027	0.448427	0.668423
286	C	0.613349	0.475815	0.670343
287	C	0.559163	0.449333	0.672578
288	C	0.532681	0.395147	0.670326
289	C	0.56007	0.368228	0.668376
290	C	0.784981	0.393342	0.668001
291	C	0.814952	0.448427	0.668517
292	C	0.869262	0.475815	0.67039
293	C	0.896968	0.44933	0.672585
294	C	0.869262	0.395147	0.670263
295	C	0.814958	0.368231	0.668319
296	C	0.615155	0.223514	0.668014
297	C	0.640264	0.193538	0.668326
298	C	0.613349	0.139233	0.670286
299	C	0.559165	0.111528	0.672595
300	C	0.53268	0.139233	0.670383
301	C	0.560068	0.193542	0.668511
302	H	0.888391	0.515317	0.67133
303	H	0.798477	0.470973	0.667853
304	H	0.888397	0.374772	0.671048
305	H	0.798485	0.329216	0.667373
306	H	0.679279	0.21001	0.66739
307	H	0.633722	0.120098	0.671051
308	H	0.537524	0.210017	0.667819
309	H	0.493177	0.120106	0.671313
310	H	0.537524	0.32921	0.667571
311	H	0.493174	0.37477	0.671162
312	H	0.633727	0.515321	0.671226
313	H	0.679288	0.470973	0.667672
314	H	0.717702	0.428608	0.667329
315	H	0.7177	0.290795	0.668118
316	H	0.579887	0.290794	0.667464
317	C	0.531979	0.476513	0.675528
318	N	0.519395	0.489098	0.96876
319	C	0.493358	0.515136	0.964531
320	C	0.47828	0.530213	0.670393
321	N	0.490891	0.517597	0.710249
322	C	0.517068	0.491425	0.715837
323	H	0.48516	0.523338	0.933338
324	C	0.525886	0.482601	0.760441
325	C	0.552643	0.455854	0.774962
326	H	0.532604	0.416255	0.762663
327	H	0.554327	0.454168	0.811549
328	H	0.592242	0.4759	0.762666
329	O	0.509857	0.498628	0.790735
330	C	0.531983	0.057163	0.675531
331	N	0.5194	0.031998	0.968763
332	C	0.493362	0.979925	0.964531
333	C	0.47828	0.949763	0.67039
334	N	0.490892	0.974986	0.710249
335	C	0.517067	0.027338	0.71584
336	H	0.485161	0.963524	0.933338
337	C	0.525889	0.044975	0.760444
338	C	0.552641	0.09848	0.774969
339	H	0.592236	0.118044	0.762659
340	H	0.554335	0.101848	0.811556
341	H	0.532587	0.11803	0.762683
342	O	0.509867	0.012919	0.790739
343	C	0.95133	0.476509	0.675528
344	N	0.9765	0.489094	0.96876
345	C	0.981155	0.491428	0.715837
346	C	0.963513	0.482605	0.760441
347	C	0.910006	0.455846	0.774962
348	H	0.890453	0.4759	0.762679
349	H	0.906634	0.454141	0.811549
350	H	0.890447	0.416255	0.762649
351	O	0.995567	0.498628	0.790739
