data_C162H144N42_2018-02-15_10:34:15
#******************************************
#
# CIF file created by Zeo++
# Zeo++ is an open source package to
# analyze microporous materials
#
#*******************************************

_cell_length_a		32.3077   
_cell_length_b		32.3088   
_cell_length_c		29.8434   
_cell_angle_alpha		90   
_cell_angle_beta		90   
_cell_angle_gamma		119.999   

_symmetry_space_group_name_H-M		'P1'
_symmetry_Int_Tables_number		1
_symmetry_cell_setting		Monoclinic

loop_
_symmetry_equiv_pos_as_xyz
'+x,+y,+z'

loop_
_atom_site_label
_atom_site_type_symbol
_atom_site_fract_x
_atom_site_fract_y
_atom_site_fract_z
1	N	0.034935	0.506566	0.024639
2	C	0.019414	0.538073	0.292614
3	H	0.030329	0.559259	0.264735
4	N	0.034935	0.506566	0.357972
5	C	0.019414	0.538073	0.625948
6	H	0.030329	0.559259	0.598069
7	N	0.034935	0.506566	0.691306
8	C	0.019414	0.538073	0.959281
9	H	0.030329	0.559259	0.931402
10	C	0.052673	0.535203	0.321284
11	C	0.052673	0.535203	0.654617
12	C	0.052673	0.535203	0.987951
13	N	0.337769	0.667545	0.996794
14	C	0.363555	0.6428	0.001274
15	C	0.287097	0.64167	0.999682
16	C	0.362437	0.718095	0.001264
17	C	0.389503	0.740417	0.040043
18	C	0.411905	0.790263	0.045298
19	C	0.407246	0.819179	0.012313
20	C	0.379758	0.796538	0.97373
21	C	0.35823	0.746736	0.96792
22	C	0.35863	0.615652	0.040035
23	C	0.386327	0.593544	0.045538
24	C	0.420098	0.598383	0.012698
25	C	0.424953	0.625734	0.974028
26	C	0.396663	0.647238	0.968111
27	C	0.259582	0.60968	0.965323
28	C	0.209507	0.581904	0.969267
29	C	0.185575	0.586282	0.007053
30	C	0.213396	0.618922	0.041116
31	C	0.263451	0.646002	0.037635
32	H	0.382539	0.574788	0.074312
33	H	0.335488	0.612643	0.064878
34	H	0.401396	0.667492	0.940188
35	H	0.449901	0.630934	0.950268
36	H	0.392331	0.720353	0.06506
37	H	0.430532	0.805234	0.07413
38	H	0.276096	0.605452	0.937903
39	H	0.190582	0.557744	0.944658
40	H	0.197382	0.622403	0.069289
41	H	0.282671	0.668453	0.063244
42	H	0.338002	0.731175	0.939994
43	H	0.374419	0.816156	0.949939
44	N	0.451367	0.579717	0.019413
45	H	0.449401	0.56888	0.052095
46	N	0.425733	0.869074	0.019206
47	H	0.438458	0.878288	0.051353
48	N	0.135242	0.555628	0.011838
49	H	0.125042	0.557894	0.043932
50	N	0.67213	0.337143	0.998141
51	C	0.649275	0.364864	0.998724
52	C	0.722629	0.35996	0.99541
53	C	0.644802	0.286628	0.995762
54	C	0.645009	0.26241	0.956514
55	C	0.618532	0.212217	0.954483
56	C	0.590744	0.184858	0.991265
57	C	0.59069	0.209525	0.030536
58	C	0.617479	0.259754	0.032789
59	C	0.65576	0.39521	0.035314
60	C	0.635293	0.42478	0.034857
61	C	0.607129	0.423844	0.998161
62	C	0.600164	0.393016	0.961915
63	C	0.621209	0.363963	0.962062
64	C	0.74717	0.387129	0.957345
65	C	0.797229	0.408691	0.954369
66	C	0.823636	0.403258	0.989208
67	C	0.798961	0.375786	0.027196
68	C	0.748993	0.354709	0.03043
69	H	0.641522	0.447464	0.061123
70	H	0.676418	0.396747	0.061931
71	H	0.616555	0.342628	0.935021
72	H	0.580475	0.39229	0.93478
73	H	0.664603	0.281256	0.929305
74	H	0.619425	0.195551	0.925652
75	H	0.7286	0.390932	0.931463
76	H	0.814324	0.427911	0.926369
77	H	0.81726	0.370671	0.052498
78	H	0.731781	0.334808	0.058077
79	H	0.617031	0.276723	0.061563
80	H	0.571088	0.191307	0.057908
81	N	0.587376	0.454254	0.995212
82	H	0.614785	0.489114	0.995641
83	N	0.564823	0.134248	0.9858
84	H	0.539961	0.126545	0.960947
85	N	0.87375	0.424112	0.983987
86	H	0.882191	0.397401	0.985093
87	C	0.530426	0.511769	0.045266
88	N	0.503746	0.532005	0.034241
89	C	0.473382	0.517945	0.331936
90	C	0.470304	0.480415	0.30524
91	N	0.496536	0.459726	0.316501
92	C	0.52658	0.473664	0.019001
93	H	0.552008	0.523717	0.07284
94	H	0.447862	0.467782	0.278282
95	C	0.44283	0.539346	0.322698
96	H	0.405448	0.510987	0.32539
97	H	0.449451	0.552212	0.288121
98	C	0.551678	0.447164	0.03014
99	H	0.5248	0.409255	0.032657
100	H	0.569288	0.458447	0.062771
101	C	0.489723	0.015372	0.045249
102	N	0.472319	0.968651	0.034998
103	C	0.483005	0.953383	0.329827
104	C	0.514167	0.988783	0.299413
105	N	0.531227	0.035584	0.309386
106	C	0.520228	0.050686	0.014503
107	H	0.48027	0.024261	0.07485
108	H	0.523893	0.979848	0.269993
109	C	0.463837	0.901686	0.320858
110	H	0.493629	0.894667	0.321742
111	H	0.449059	0.894353	0.286963
112	C	0.540125	0.102185	0.024442
113	H	0.565371	0.111245	0.052125
114	H	0.510988	0.107822	0.035407
115	C	0.987758	0.48143	0.03495
116	N	0.972178	0.513378	0.303115
117	C	0.954696	0.485112	0.006714
118	H	0.977088	0.461156	0.063403
119	C	0.105004	0.564377	0.313137
120	H	0.114941	0.602086	0.314403
121	H	0.111925	0.556458	0.279272
122	C	0.903003	0.461792	0.017188
123	H	0.892808	0.489372	0.016989
124	H	0.896166	0.446435	0.050896
125	N	0.337769	0.667545	0.330126
126	C	0.363555	0.6428	0.334607
127	C	0.287097	0.64167	0.333017
128	C	0.362437	0.718095	0.334597
129	C	0.389503	0.740417	0.373376
130	C	0.411905	0.790263	0.37863
131	C	0.407246	0.819179	0.345648
132	C	0.379758	0.796538	0.307064
133	C	0.35823	0.746736	0.301253
134	C	0.35863	0.615652	0.373369
135	C	0.386327	0.593544	0.378871
136	C	0.420098	0.598383	0.34603
137	C	0.424953	0.625734	0.307361
138	C	0.396663	0.647238	0.301444
139	C	0.259582	0.60968	0.298657
140	C	0.209507	0.581904	0.3026
141	C	0.185575	0.586282	0.340387
142	C	0.213396	0.618922	0.374448
143	C	0.263451	0.646002	0.370967
144	H	0.382539	0.574788	0.407645
145	H	0.335488	0.612643	0.398212
146	H	0.401396	0.667492	0.273522
147	H	0.449901	0.630934	0.283602
148	H	0.392331	0.720353	0.398393
149	H	0.430532	0.805234	0.407464
150	H	0.276096	0.605452	0.271238
151	H	0.190582	0.557744	0.277993
152	H	0.197382	0.622403	0.402622
153	H	0.282671	0.668453	0.396577
154	H	0.338002	0.731175	0.273327
155	H	0.374419	0.816156	0.283273
156	N	0.451367	0.579717	0.352745
157	H	0.449401	0.56888	0.385429
158	N	0.425733	0.869074	0.35254
159	H	0.438458	0.878288	0.384685
160	N	0.135242	0.555628	0.345172
161	H	0.125042	0.557894	0.377266
162	N	0.67213	0.337143	0.331473
163	C	0.649275	0.364864	0.332057
164	C	0.722629	0.35996	0.328745
165	C	0.644802	0.286628	0.329094
166	C	0.645009	0.26241	0.289848
167	C	0.618532	0.212217	0.287818
168	C	0.590744	0.184858	0.324598
169	C	0.59069	0.209525	0.36387
170	C	0.617479	0.259754	0.366121
171	C	0.65576	0.39521	0.368648
172	C	0.635293	0.42478	0.368189
173	C	0.607129	0.423844	0.331496
174	C	0.600164	0.393016	0.295249
175	C	0.621209	0.363963	0.295396
176	C	0.74717	0.387129	0.290679
177	C	0.797229	0.408691	0.287704
178	C	0.823636	0.403258	0.32254
179	C	0.798961	0.375786	0.360529
180	C	0.748993	0.354709	0.363762
181	H	0.641522	0.447464	0.394456
182	H	0.676418	0.396747	0.395263
183	H	0.616555	0.342628	0.268354
184	H	0.580475	0.39229	0.268114
185	H	0.664603	0.281256	0.262637
186	H	0.619425	0.195551	0.258986
187	H	0.7286	0.390932	0.264796
188	H	0.814324	0.427911	0.259704
189	H	0.81726	0.370671	0.385831
190	H	0.731781	0.334808	0.39141
191	H	0.617031	0.276723	0.394895
192	H	0.571088	0.191307	0.391239
193	N	0.587376	0.454254	0.328547
194	H	0.614785	0.489114	0.328974
195	N	0.564823	0.134248	0.319133
196	H	0.539961	0.126545	0.29428
197	N	0.87375	0.424112	0.317322
198	H	0.882191	0.397401	0.318427
199	C	0.530426	0.511769	0.3786
200	N	0.503746	0.532005	0.367576
201	C	0.473382	0.517945	0.66527
202	C	0.470304	0.480415	0.638574
203	N	0.496536	0.459726	0.649836
204	C	0.52658	0.473664	0.352333
205	H	0.552008	0.523717	0.406174
206	H	0.447862	0.467782	0.611616
207	C	0.44283	0.539346	0.656032
208	H	0.405448	0.510987	0.658722
209	H	0.449451	0.552212	0.621454
210	C	0.551678	0.447164	0.363474
211	H	0.5248	0.409255	0.365991
212	H	0.569288	0.458447	0.396105
213	C	0.489723	0.015372	0.378583
214	N	0.472319	0.968651	0.36833
215	C	0.483005	0.953383	0.663159
216	C	0.514167	0.988783	0.632747
217	N	0.531227	0.035584	0.642719
218	C	0.520228	0.050686	0.347836
219	H	0.48027	0.024261	0.408184
220	H	0.523893	0.979848	0.603326
221	C	0.463837	0.901686	0.654192
222	H	0.493629	0.894667	0.655077
223	H	0.449059	0.894353	0.620295
224	C	0.540125	0.102185	0.357774
225	H	0.565371	0.111245	0.385459
226	H	0.510988	0.107822	0.368742
227	C	0.987758	0.48143	0.368283
228	N	0.972178	0.513378	0.636449
229	C	0.954696	0.485112	0.340049
230	H	0.977088	0.461156	0.396738
231	C	0.105004	0.564377	0.646472
232	H	0.114941	0.602086	0.647738
233	H	0.111925	0.556458	0.612605
234	C	0.903003	0.461792	0.35052
235	H	0.892808	0.489372	0.350322
236	H	0.896166	0.446435	0.384229
237	N	0.337769	0.667545	0.66346
238	C	0.363555	0.6428	0.66794
239	C	0.287097	0.64167	0.666349
240	C	0.362437	0.718095	0.66793
241	C	0.389503	0.740417	0.706709
242	C	0.411905	0.790263	0.711963
243	C	0.407246	0.819179	0.678981
244	C	0.379758	0.796538	0.640397
245	C	0.35823	0.746736	0.634586
246	C	0.35863	0.615652	0.706703
247	C	0.386327	0.593544	0.712205
248	C	0.420098	0.598383	0.679363
249	C	0.424953	0.625734	0.640695
250	C	0.396663	0.647238	0.634777
251	C	0.259582	0.60968	0.631989
252	C	0.209507	0.581904	0.635933
253	C	0.185575	0.586282	0.673721
254	C	0.213396	0.618922	0.707782
255	C	0.263451	0.646002	0.7043
256	H	0.382539	0.574788	0.740978
257	H	0.335488	0.612643	0.731542
258	H	0.401396	0.667492	0.606855
259	H	0.449901	0.630934	0.616934
260	H	0.392331	0.720353	0.731727
261	H	0.430532	0.805234	0.740797
262	H	0.276096	0.605452	0.60457
263	H	0.190582	0.557744	0.611325
264	H	0.197382	0.622403	0.735955
265	H	0.282671	0.668453	0.729911
266	H	0.338002	0.731175	0.60666
267	H	0.374419	0.816156	0.616606
268	N	0.451367	0.579717	0.686078
269	H	0.449401	0.56888	0.718762
270	N	0.425733	0.869074	0.685874
271	H	0.438458	0.878288	0.718018
272	N	0.135242	0.555628	0.678505
273	H	0.125042	0.557894	0.7106
274	N	0.67213	0.337143	0.664807
275	C	0.649275	0.364864	0.66539
276	C	0.722629	0.35996	0.662076
277	C	0.644802	0.286628	0.662428
278	C	0.645009	0.26241	0.623183
279	C	0.618532	0.212217	0.621153
280	C	0.590744	0.184858	0.657931
281	C	0.59069	0.209525	0.697203
282	C	0.617479	0.259754	0.699455
283	C	0.65576	0.39521	0.701981
284	C	0.635293	0.42478	0.701522
285	C	0.607129	0.423844	0.664831
286	C	0.600164	0.393016	0.628582
287	C	0.621209	0.363963	0.628729
288	C	0.74717	0.387129	0.624011
289	C	0.797229	0.408691	0.621039
290	C	0.823636	0.403258	0.655874
291	C	0.798961	0.375786	0.693862
292	C	0.748993	0.354709	0.697096
293	H	0.641522	0.447464	0.727789
294	H	0.676418	0.396747	0.728597
295	H	0.616555	0.342628	0.601688
296	H	0.580475	0.39229	0.601447
297	H	0.664603	0.281256	0.595971
298	H	0.619425	0.195551	0.592319
299	H	0.7286	0.390932	0.598129
300	H	0.814324	0.427911	0.593036
301	H	0.81726	0.370671	0.719164
302	H	0.731781	0.334808	0.724744
303	H	0.617031	0.276723	0.728228
304	H	0.571088	0.191307	0.724573
305	N	0.587376	0.454254	0.661879
306	H	0.614785	0.489114	0.662308
307	N	0.564823	0.134248	0.652466
308	H	0.539961	0.126545	0.627613
309	N	0.87375	0.424112	0.650653
310	H	0.882191	0.397401	0.651759
311	C	0.530426	0.511769	0.711933
312	N	0.503746	0.532005	0.700906
313	C	0.473382	0.517945	0.998603
314	C	0.470304	0.480415	0.971907
315	N	0.496536	0.459726	0.983166
316	C	0.52658	0.473664	0.685666
317	H	0.552008	0.523717	0.739507
318	H	0.447862	0.467782	0.944946
319	C	0.44283	0.539346	0.989365
320	H	0.405448	0.510987	0.992056
321	H	0.449451	0.552212	0.954788
322	C	0.551678	0.447164	0.696808
323	H	0.5248	0.409255	0.699324
324	H	0.569288	0.458447	0.729438
325	C	0.489723	0.015372	0.711913
326	N	0.472319	0.968651	0.701663
327	C	0.483005	0.953383	0.996492
328	C	0.514167	0.988783	0.96608
329	N	0.531227	0.035584	0.976052
330	C	0.520228	0.050686	0.681169
331	H	0.48027	0.024261	0.741514
332	H	0.523893	0.979848	0.93666
333	C	0.463837	0.901686	0.987525
334	H	0.493629	0.894667	0.98841
335	H	0.449059	0.894353	0.953628
336	C	0.540125	0.102185	0.691108
337	H	0.565371	0.111245	0.718792
338	H	0.510988	0.107822	0.702072
339	C	0.987758	0.48143	0.701616
340	N	0.972178	0.513378	0.969779
341	C	0.954696	0.485112	0.673379
342	H	0.977088	0.461156	0.730071
343	C	0.105004	0.564377	0.979802
344	H	0.114941	0.602086	0.981068
345	H	0.111925	0.556458	0.945938
346	C	0.903003	0.461792	0.683853
347	H	0.892808	0.489372	0.683656
348	H	0.896166	0.446435	0.717563
