data_C198H108N42O36_2018-02-15_10:40:50
#******************************************
#
# CIF file created by Zeo++
# Zeo++ is an open source package to
# analyze microporous materials
#
#*******************************************

_cell_length_a		32.3444   
_cell_length_b		32.3446   
_cell_length_c		29.1966   
_cell_angle_alpha		90   
_cell_angle_beta		90   
_cell_angle_gamma		120   

_symmetry_space_group_name_H-M		'P1'
_symmetry_Int_Tables_number		1
_symmetry_cell_setting		Monoclinic

loop_
_symmetry_equiv_pos_as_xyz
'+x,+y,+z'

loop_
_atom_site_label
_atom_site_type_symbol
_atom_site_fract_x
_atom_site_fract_y
_atom_site_fract_z
1	C	0.277923	0.624817	0.054636
2	C	0.227618	0.599192	0.055074
3	C	0.200412	0.602812	0.018731
4	C	0.22639	0.633117	0.981624
5	C	0.276707	0.658243	0.980778
6	H	0.296222	0.621322	0.081527
7	H	0.211101	0.577044	0.082246
8	H	0.294125	0.679795	0.953466
9	H	0.208929	0.63808	0.954871
10	C	0.148888	0.576933	0.019489
11	C	0.121394	0.559286	0.312465
12	N	0.073052	0.534914	0.314377
13	C	0.046015	0.524554	0.019635
14	C	0.071672	0.541165	0.061649
15	C	0.122388	0.567205	0.060637
16	H	0.140082	0.579732	0.091002
17	H	0.137071	0.563431	0.281158
18	N	0.047538	0.53119	0.104225
19	O	0.056406	0.568683	0.125186
20	O	0.057879	0.506329	0.129692
21	C	0.277923	0.624817	0.38797
22	C	0.227618	0.599192	0.388408
23	C	0.200412	0.602812	0.352065
24	C	0.22639	0.633117	0.314956
25	C	0.276707	0.658243	0.314111
26	H	0.296222	0.621322	0.41486
27	H	0.211101	0.577044	0.415579
28	H	0.294125	0.679795	0.286799
29	H	0.208929	0.63808	0.288203
30	C	0.148888	0.576933	0.352822
31	C	0.121394	0.559286	0.645797
32	N	0.073052	0.534914	0.647712
33	C	0.046015	0.524554	0.352969
34	C	0.071672	0.541165	0.394981
35	C	0.122388	0.567205	0.39397
36	H	0.140082	0.579732	0.424337
37	H	0.137071	0.563431	0.614492
38	N	0.047538	0.53119	0.437557
39	O	0.056406	0.568683	0.458519
40	O	0.057879	0.506329	0.463026
41	C	0.277923	0.624817	0.721303
42	C	0.227618	0.599192	0.721741
43	C	0.200412	0.602812	0.685398
44	C	0.22639	0.633117	0.648291
45	C	0.276707	0.658243	0.647445
46	H	0.296222	0.621322	0.748193
47	H	0.211101	0.577044	0.748912
48	H	0.294125	0.679795	0.620133
49	H	0.208929	0.63808	0.621538
50	C	0.148888	0.576933	0.686155
51	C	0.121394	0.559286	0.979134
52	N	0.073052	0.534914	0.981045
53	C	0.046015	0.524554	0.686302
54	C	0.071672	0.541165	0.728317
55	C	0.122388	0.567205	0.727303
56	H	0.140082	0.579732	0.75767
57	H	0.137071	0.563431	0.947825
58	N	0.047538	0.53119	0.770894
59	O	0.056406	0.568683	0.791855
60	O	0.057879	0.506329	0.796359
61	N	0.353973	0.680427	0.016863
62	C	0.303133	0.654577	0.017393
63	H	0.354626	0.621233	0.953453
64	H	0.35264	0.738175	0.08154
65	N	0.353973	0.680427	0.350198
66	C	0.303133	0.654577	0.350726
67	H	0.354626	0.621233	0.286784
68	H	0.35264	0.738175	0.414873
69	N	0.353973	0.680427	0.683531
70	C	0.303133	0.654577	0.684062
71	H	0.354626	0.621233	0.620116
72	H	0.35264	0.738175	0.748206
73	C	0.37982	0.655437	0.017393
74	C	0.378961	0.731264	0.017392
75	C	0.409573	0.659978	0.054641
76	C	0.435187	0.635288	0.055085
77	C	0.431585	0.604479	0.018732
78	C	0.401294	0.600166	0.981617
79	C	0.376168	0.625356	0.980771
80	C	0.409041	0.757689	0.980771
81	C	0.434232	0.808004	0.981614
82	C	0.429917	0.833983	0.01873
83	C	0.39909	0.80678	0.055071
84	C	0.37441	0.756475	0.054634
85	H	0.457323	0.640904	0.082266
86	H	0.413043	0.681748	0.081547
87	H	0.39635	0.577761	0.954854
88	H	0.413184	0.740271	0.953463
89	H	0.456665	0.825465	0.954867
90	H	0.393487	0.823298	0.082261
91	C	0.457464	0.578836	0.019489
92	H	0.454604	0.567172	0.090995
93	C	0.455573	0.885509	0.019489
94	H	0.453861	0.897326	0.281162
95	C	0.37982	0.655437	0.350726
96	C	0.378961	0.731264	0.350726
97	C	0.409573	0.659978	0.387973
98	C	0.435187	0.635288	0.388418
99	C	0.431585	0.604479	0.352065
100	C	0.401294	0.600166	0.314949
101	C	0.376168	0.625356	0.314102
102	C	0.409041	0.757689	0.314102
103	C	0.434232	0.808004	0.314948
104	C	0.429917	0.833983	0.352065
105	C	0.39909	0.80678	0.388405
106	C	0.37441	0.756475	0.387966
107	H	0.457323	0.640904	0.415599
108	H	0.413043	0.681748	0.41488
109	H	0.39635	0.577761	0.288185
110	H	0.413184	0.740271	0.286796
111	H	0.456665	0.825465	0.2882
112	H	0.393487	0.823298	0.415596
113	C	0.457464	0.578836	0.352822
114	H	0.454604	0.567172	0.42433
115	C	0.455573	0.885509	0.352822
116	H	0.453861	0.897326	0.614496
117	C	0.37982	0.655437	0.684059
118	C	0.378961	0.731264	0.684059
119	C	0.409573	0.659978	0.721306
120	C	0.435187	0.635288	0.721751
121	C	0.431585	0.604479	0.685398
122	C	0.401294	0.600166	0.648284
123	C	0.376168	0.625356	0.647434
124	C	0.409041	0.757689	0.647434
125	C	0.434232	0.808004	0.64828
126	C	0.429917	0.833983	0.685398
127	C	0.39909	0.80678	0.721738
128	C	0.37441	0.756475	0.721303
129	H	0.457323	0.640904	0.748933
130	H	0.413043	0.681748	0.748213
131	H	0.39635	0.577761	0.621517
132	H	0.413184	0.740271	0.62013
133	H	0.456665	0.825465	0.621534
134	H	0.393487	0.823298	0.748929
135	C	0.457464	0.578836	0.686155
136	H	0.454604	0.567172	0.757663
137	C	0.455573	0.885509	0.686155
138	H	0.453861	0.897326	0.947829
139	C	0.465404	0.913002	0.312468
140	C	0.465404	0.913002	0.645801
141	C	0.465404	0.913002	0.979134
142	N	0.687302	0.347091	0.017417
143	C	0.662009	0.372551	0.016871
144	C	0.661841	0.296338	0.01687
145	C	0.738056	0.372383	0.016871
146	C	0.763434	0.398472	0.977877
147	C	0.813743	0.42333	0.977322
148	C	0.840549	0.423109	0.0157
149	C	0.814523	0.396805	0.054714
150	C	0.764201	0.371847	0.055304
151	C	0.635933	0.371851	0.97787
152	C	0.611059	0.397287	0.977322
153	C	0.61128	0.424312	0.0157
154	C	0.637575	0.424583	0.054718
155	C	0.662528	0.399218	0.05531
156	C	0.635174	0.270192	0.055308
157	C	0.609816	0.219871	0.054721
158	C	0.610083	0.193847	0.015701
159	C	0.63711	0.220651	0.977325
160	C	0.66255	0.270962	0.977873
161	H	0.591975	0.395113	0.948586
162	H	0.634972	0.352721	0.949593
163	H	0.681288	0.400361	0.083953
164	H	0.639687	0.444179	0.083034
165	H	0.745264	0.39945	0.949603
166	H	0.830655	0.442451	0.948603
167	H	0.634017	0.287807	0.083946
168	H	0.590199	0.202391	0.083027
169	H	0.639295	0.203743	0.948593
170	H	0.681686	0.289132	0.949596
171	H	0.746586	0.353078	0.083941
172	H	0.832004	0.394674	0.083022
173	C	0.475161	0.56904	0.312471
174	N	0.499512	0.545049	0.31438
175	C	0.509835	0.528334	0.019635
176	C	0.493189	0.537345	0.061645
177	C	0.467149	0.562021	0.060633
178	C	0.536126	0.503191	0.015206
179	C	0.560038	0.501363	0.308154
180	C	0.584575	0.475184	0.308933
181	C	0.586105	0.450494	0.015003
182	C	0.561361	0.453168	0.053696
183	N	0.538244	0.47839	0.051971
184	H	0.602556	0.475184	0.280097
185	H	0.559637	0.435647	0.083378
186	H	0.471013	0.580571	0.281165
187	N	0.56012	0.525496	0.267641
188	N	0.503132	0.523154	0.10422
189	O	0.540483	0.497004	0.234905
190	O	0.465619	0.494509	0.125147
191	O	0.527971	0.558337	0.129717
192	O	0.601597	0.556562	0.255884
193	N	0.489375	0.961343	0.31438
194	C	0.506064	0.988379	0.019637
195	C	0.497031	0.962721	0.061649
196	C	0.47236	0.912006	0.060636
197	H	0.467194	0.894313	0.091001
198	C	0.531205	0.039816	0.015209
199	C	0.53304	0.065553	0.308153
200	C	0.559228	0.116272	0.30893
201	C	0.583904	0.142492	0.015004
202	C	0.581213	0.115073	0.053703
203	N	0.555996	0.066735	0.051977
204	H	0.559224	0.134253	0.280095
205	H	0.598737	0.130871	0.083384
206	N	0.50891	0.041502	0.26764
207	N	0.511201	0.986858	0.104225
208	O	0.537407	0.050352	0.234907
209	O	0.539834	0.97799	0.125174
210	O	0.476004	0.976512	0.129702
211	O	0.477851	0.051916	0.255875
212	C	0.994581	0.498261	0.015207
213	C	0.968842	0.474374	0.308147
214	C	0.918124	0.449841	0.308924
215	C	0.891902	0.448281	0.015003
216	C	0.919325	0.472989	0.053711
217	N	0.96766	0.496119	0.05198
218	H	0.900146	0.431873	0.280083
219	H	0.903525	0.474724	0.083388
220	N	0.992896	0.474313	0.267627
221	O	0.984046	0.493973	0.234907
222	O	0.982482	0.432844	0.255843
223	N	0.687302	0.347091	0.350749
224	C	0.662009	0.372551	0.350205
225	C	0.661841	0.296338	0.350205
226	C	0.738056	0.372383	0.350205
227	C	0.763434	0.398472	0.311209
228	C	0.813743	0.42333	0.310655
229	C	0.840549	0.423109	0.349034
230	C	0.814523	0.396805	0.388048
231	C	0.764201	0.371847	0.388637
232	C	0.635933	0.371851	0.311203
233	C	0.611059	0.397287	0.310656
234	C	0.61128	0.424312	0.349034
235	C	0.637575	0.424583	0.388052
236	C	0.662528	0.399218	0.388644
237	C	0.635174	0.270192	0.388641
238	C	0.609816	0.219871	0.388055
239	C	0.610083	0.193847	0.349034
240	C	0.63711	0.220651	0.310659
241	C	0.66255	0.270962	0.311206
242	H	0.591975	0.395113	0.281919
243	H	0.634972	0.352721	0.282925
244	H	0.681288	0.400361	0.417288
245	H	0.639687	0.444179	0.416367
246	H	0.745264	0.39945	0.282938
247	H	0.830655	0.442451	0.281935
248	H	0.634017	0.287807	0.417278
249	H	0.590199	0.202391	0.41636
250	H	0.639295	0.203743	0.281925
251	H	0.681686	0.289132	0.282929
252	H	0.746586	0.353078	0.417274
253	H	0.832004	0.394674	0.416356
254	C	0.475161	0.56904	0.645804
255	N	0.499512	0.545049	0.647715
256	C	0.509835	0.528334	0.352969
257	C	0.493189	0.537345	0.394977
258	C	0.467149	0.562021	0.393967
259	C	0.536126	0.503191	0.34854
260	C	0.560038	0.501363	0.641489
261	C	0.584575	0.475184	0.642266
262	C	0.586105	0.450494	0.348335
263	C	0.561361	0.453168	0.387031
264	N	0.538244	0.47839	0.385305
265	H	0.602556	0.475184	0.613431
266	H	0.559637	0.435647	0.416713
267	H	0.471013	0.580571	0.614499
268	N	0.56012	0.525496	0.600974
269	N	0.503132	0.523154	0.437554
270	O	0.540483	0.497004	0.568237
271	O	0.465619	0.494509	0.458481
272	O	0.527971	0.558337	0.46305
273	O	0.601597	0.556562	0.589219
274	N	0.489375	0.961343	0.647712
275	C	0.506064	0.988379	0.352972
276	C	0.497031	0.962721	0.394981
277	C	0.47236	0.912006	0.39397
278	H	0.467194	0.894313	0.424333
279	C	0.531205	0.039816	0.348544
280	C	0.53304	0.065553	0.641485
281	C	0.559228	0.116272	0.642263
282	C	0.583904	0.142492	0.348338
283	C	0.581213	0.115073	0.387038
284	N	0.555996	0.066735	0.385312
285	H	0.559224	0.134253	0.613427
286	H	0.598737	0.130871	0.416719
287	N	0.50891	0.041502	0.600974
288	N	0.511201	0.986858	0.437557
289	O	0.537407	0.050352	0.56824
290	O	0.539834	0.97799	0.458509
291	O	0.476004	0.976512	0.463036
292	O	0.477851	0.051916	0.589209
293	C	0.994581	0.498261	0.34854
294	C	0.968842	0.474374	0.641482
295	C	0.918124	0.449841	0.642256
296	C	0.891902	0.448281	0.348338
297	C	0.919325	0.472989	0.387045
298	N	0.96766	0.496119	0.385315
299	H	0.900146	0.431873	0.613417
300	H	0.903525	0.474724	0.416723
301	N	0.992896	0.474313	0.60096
302	O	0.984046	0.493973	0.56824
303	O	0.982482	0.432844	0.589178
304	N	0.687302	0.347091	0.684083
305	C	0.662009	0.372551	0.683538
306	C	0.661841	0.296338	0.683538
307	C	0.738056	0.372383	0.683538
308	C	0.763434	0.398472	0.644544
309	C	0.813743	0.42333	0.643989
310	C	0.840549	0.423109	0.682367
311	C	0.814523	0.396805	0.721381
312	C	0.764201	0.371847	0.721971
313	C	0.635933	0.371851	0.644537
314	C	0.611059	0.397287	0.643989
315	C	0.61128	0.424312	0.682367
316	C	0.637575	0.424583	0.721385
317	C	0.662528	0.399218	0.721977
318	C	0.635174	0.270192	0.721974
319	C	0.609816	0.219871	0.721388
320	C	0.610083	0.193847	0.682367
321	C	0.63711	0.220651	0.643992
322	C	0.66255	0.270962	0.64454
323	H	0.591975	0.395113	0.615253
324	H	0.634972	0.352721	0.61626
325	H	0.681288	0.400361	0.750621
326	H	0.639687	0.444179	0.7497
327	H	0.745264	0.39945	0.61627
328	H	0.830655	0.442451	0.61527
329	H	0.634017	0.287807	0.750614
330	H	0.590199	0.202391	0.749693
331	H	0.639295	0.203743	0.61526
332	H	0.681686	0.289132	0.616263
333	H	0.746586	0.353078	0.750607
334	H	0.832004	0.394674	0.749689
335	C	0.475161	0.56904	0.979137
336	N	0.499512	0.545049	0.981048
337	C	0.509835	0.528334	0.686302
338	C	0.493189	0.537345	0.72831
339	C	0.467149	0.562021	0.7273
340	C	0.536126	0.503191	0.681873
341	C	0.560038	0.501363	0.974822
342	C	0.584575	0.475184	0.975599
343	C	0.586105	0.450494	0.681671
344	C	0.561361	0.453168	0.720364
345	N	0.538244	0.47839	0.718638
346	H	0.602556	0.475184	0.946764
347	H	0.559637	0.435647	0.750046
348	H	0.471013	0.580571	0.947832
349	N	0.56012	0.525496	0.93431
350	N	0.503132	0.523154	0.770887
351	O	0.540483	0.497004	0.901573
352	O	0.465619	0.494509	0.791814
353	O	0.527971	0.558337	0.796383
354	O	0.601597	0.556562	0.922552
355	N	0.489375	0.961343	0.981045
356	C	0.506064	0.988379	0.686305
357	C	0.497031	0.962721	0.728317
358	C	0.47236	0.912006	0.727303
359	H	0.467194	0.894313	0.75767
360	C	0.531205	0.039816	0.681877
361	C	0.53304	0.065553	0.974822
362	C	0.559228	0.116272	0.975596
363	C	0.583904	0.142492	0.681671
364	C	0.581213	0.115073	0.720371
365	N	0.555996	0.066735	0.718645
366	H	0.559224	0.134253	0.946764
367	H	0.598737	0.130871	0.750053
368	N	0.50891	0.041502	0.934307
369	N	0.511201	0.986858	0.770891
370	O	0.537407	0.050352	0.901573
371	O	0.539834	0.97799	0.791842
372	O	0.476004	0.976512	0.79637
373	O	0.477851	0.051916	0.922542
374	C	0.994581	0.498261	0.681873
375	C	0.968842	0.474374	0.974815
376	C	0.918124	0.449841	0.975592
377	C	0.891902	0.448281	0.681671
378	C	0.919325	0.472989	0.720378
379	N	0.96766	0.496119	0.718648
380	H	0.900146	0.431873	0.94675
381	H	0.903525	0.474724	0.750056
382	N	0.992896	0.474313	0.934293
383	O	0.984046	0.493973	0.901573
384	O	0.982482	0.432844	0.922511
