data_C162H72N36O36_2018-02-15_10:32:43
#******************************************
#
# CIF file created by Zeo++
# Zeo++ is an open source package to
# analyze microporous materials
#
#*******************************************

_cell_length_a		29.3921   
_cell_length_b		29.3921   
_cell_length_c		30.266   
_cell_angle_alpha		90   
_cell_angle_beta		90   
_cell_angle_gamma		120   

_symmetry_space_group_name_H-M		'P1'
_symmetry_Int_Tables_number		1
_symmetry_cell_setting		Monoclinic

loop_
_symmetry_equiv_pos_as_xyz
'+x,+y,+z'

loop_
_atom_site_label
_atom_site_type_symbol
_atom_site_fract_x
_atom_site_fract_y
_atom_site_fract_z
1	C	0.342497	0.716463	0.993805
2	C	0.288801	0.677904	0.994103
3	C	0.272543	0.623831	0.993792
4	C	0.311105	0.608694	0.994096
5	C	0.365179	0.64651	0.327128
6	C	0.380318	0.700211	0.99408
7	H	0.299539	0.569577	0.995497
8	H	0.419432	0.727758	0.99552
9	H	0.26125	0.68947	0.99551
10	C	0.358301	0.770399	0.996529
11	C	0.403317	0.630714	0.329843
12	C	0.218608	0.585688	0.9965
13	O	0.446633	0.65997	0.021506
14	O	0.329038	0.784463	0.021509
15	O	0.204545	0.542371	0.021489
16	C	0.643784	0.274672	0.993003
17	C	0.697629	0.312751	0.992593
18	C	0.714341	0.366915	0.992999
19	C	0.676262	0.38268	0.992593
20	C	0.622097	0.345226	0.326338
21	C	0.606331	0.291382	0.992599
22	H	0.688181	0.421916	0.99211
23	H	0.567094	0.264064	0.992124
24	H	0.724947	0.300831	0.992114
25	C	0.627402	0.220574	0.992788
26	C	0.584382	0.36161	0.326118
27	C	0.768437	0.404626	0.992771
28	O	0.540443	0.333815	0.968126
29	O	0.655195	0.204426	0.968133
30	O	0.784581	0.448576	0.96813
31	C	0.561393	0.426654	0.013721
32	C	0.549383	0.439037	0.305166
33	N	0.523052	0.465571	0.301998
34	C	0.506998	0.481596	0.004445
35	C	0.518252	0.471165	0.047687
36	C	0.546319	0.44394	0.051617
37	H	0.555545	0.436028	0.082183
38	C	0.479691	0.508974	0.998312
39	C	0.442355	0.544041	0.281754
40	C	0.425757	0.563523	0.317024
41	C	0.43571	0.553568	0.02732
42	H	0.561539	0.429648	0.276741
43	N	0.468719	0.518253	0.290112
44	C	0.463046	0.526346	0.035452
45	C	0.473871	0.515692	0.078567
46	C	0.501434	0.488353	0.084649
47	H	0.421756	0.565247	0.053307
48	H	0.435211	0.549474	0.249713
49	O	0.458263	0.531587	0.114657
50	O	0.511298	0.478897	0.126365
51	N	0.396813	0.587004	0.308793
52	H	0.36986	0.571164	0.285986
53	N	0.590844	0.402957	0.017677
54	H	0.618299	0.416895	0.040177
55	C	0.562358	0.132538	0.013725
56	C	0.549974	0.108145	0.30517
57	N	0.52344	0.055281	0.302003
58	C	0.507419	0.023203	0.00445
59	C	0.517846	0.044889	0.047691
60	C	0.54507	0.100181	0.051621
61	H	0.552982	0.117319	0.082187
62	C	0.480034	0.968514	0.998318
63	C	0.444969	0.89611	0.281763
64	C	0.425487	0.860034	0.317032
65	C	0.43544	0.879944	0.027328
66	H	0.559365	0.129689	0.276745
67	N	0.470756	0.948263	0.290119
68	C	0.462661	0.934501	0.035459
69	C	0.473316	0.955982	0.078574
70	C	0.500653	0.010883	0.084655
71	H	0.423758	0.85431	0.053316
72	H	0.439536	0.883531	0.249722
73	O	0.457416	0.924479	0.114664
74	O	0.510109	0.030205	0.126371
75	N	0.402005	0.807607	0.308803
76	H	0.417847	0.796493	0.285999
77	N	0.586055	0.185689	0.017681
78	H	0.572116	0.199203	0.04018
79	C	0.856478	0.427632	0.013714
80	C	0.880867	0.439646	0.305159
81	N	0.933735	0.465979	0.301991
82	C	0.96581	0.482028	0.004437
83	C	0.944128	0.470768	0.047679
84	C	0.888834	0.442699	0.05161
85	H	0.871698	0.433466	0.082175
86	C	0.020498	0.509332	0.998304
87	C	0.092899	0.546669	0.281747
88	C	0.128979	0.563259	0.317016
89	C	0.109071	0.5533	0.027312
90	H	0.859325	0.427495	0.276734
91	N	0.040749	0.520308	0.290105
92	C	0.054516	0.525969	0.035444
93	C	0.033034	0.515138	0.07856
94	C	0.978134	0.487575	0.084642
95	H	0.134706	0.567251	0.053299
96	H	0.105478	0.553819	0.249706
97	O	0.06454	0.530739	0.11465
98	O	0.958815	0.477706	0.126358
99	N	0.181405	0.592201	0.308787
100	H	0.19252	0.61916	0.285983
101	N	0.803328	0.398176	0.01767
102	H	0.789814	0.37072	0.040169
103	C	0.342497	0.716463	0.32714
104	C	0.288801	0.677904	0.327438
105	C	0.272543	0.623831	0.327125
106	C	0.311105	0.608694	0.327429
107	C	0.365179	0.64651	0.660461
108	C	0.380318	0.700211	0.327412
109	H	0.299539	0.569577	0.32883
110	H	0.419432	0.727758	0.328853
111	H	0.26125	0.68947	0.328845
112	C	0.358301	0.770399	0.329862
113	C	0.403317	0.630714	0.663177
114	C	0.218608	0.585688	0.329833
115	O	0.446633	0.65997	0.354841
116	O	0.329038	0.784463	0.354841
117	O	0.204545	0.542371	0.354821
118	C	0.643784	0.274672	0.326338
119	C	0.697629	0.312751	0.325928
120	C	0.714341	0.366915	0.326333
121	C	0.676262	0.38268	0.325928
122	C	0.622097	0.345226	0.659671
123	C	0.606331	0.291382	0.325935
124	H	0.688181	0.421916	0.325444
125	H	0.567094	0.264064	0.325456
126	H	0.724947	0.300831	0.325448
127	C	0.627402	0.220574	0.326123
128	C	0.584382	0.36161	0.65945
129	C	0.768437	0.404626	0.326105
130	O	0.540443	0.333815	0.301462
131	O	0.655195	0.204426	0.301466
132	O	0.784581	0.448576	0.301462
133	C	0.561393	0.426654	0.347053
134	C	0.549383	0.439037	0.638499
135	N	0.523052	0.465571	0.63533
136	C	0.506998	0.481596	0.337779
137	C	0.518252	0.471165	0.381018
138	C	0.546319	0.44394	0.38495
139	H	0.555545	0.436028	0.415516
140	C	0.479691	0.508974	0.331646
141	C	0.442355	0.544041	0.615087
142	C	0.425757	0.563523	0.650357
143	C	0.43571	0.553568	0.360652
144	H	0.561539	0.429648	0.610074
145	N	0.468719	0.518253	0.623446
146	C	0.463046	0.526346	0.368784
147	C	0.473871	0.515692	0.411901
148	C	0.501434	0.488353	0.417984
149	H	0.421756	0.565247	0.386639
150	H	0.435211	0.549474	0.583047
151	O	0.458263	0.531587	0.447991
152	O	0.511298	0.478897	0.459698
153	N	0.396813	0.587004	0.642127
154	H	0.36986	0.571164	0.619319
155	N	0.590844	0.402957	0.351011
156	H	0.618299	0.416895	0.373512
157	C	0.562358	0.132538	0.34706
158	C	0.549974	0.108145	0.638502
159	N	0.52344	0.055281	0.635337
160	C	0.507419	0.023203	0.337782
161	C	0.517846	0.044889	0.381025
162	C	0.54507	0.100181	0.384954
163	H	0.552982	0.117319	0.415519
164	C	0.480034	0.968514	0.331653
165	C	0.444969	0.89611	0.615096
166	C	0.425487	0.860034	0.650364
167	C	0.43544	0.879944	0.360662
168	H	0.559365	0.129689	0.610078
169	N	0.470756	0.948263	0.623452
170	C	0.462661	0.934501	0.36879
171	C	0.473316	0.955982	0.411908
172	C	0.500653	0.010883	0.417987
173	H	0.423758	0.85431	0.386649
174	H	0.439536	0.883531	0.583054
175	O	0.457416	0.924479	0.447998
176	O	0.510109	0.030205	0.459704
177	N	0.402005	0.807607	0.642137
178	H	0.417847	0.796493	0.619332
179	N	0.586055	0.185689	0.351015
180	H	0.572116	0.199203	0.373512
181	C	0.856478	0.427632	0.347046
182	C	0.880867	0.439646	0.638492
183	N	0.933735	0.465979	0.635324
184	C	0.96581	0.482028	0.337772
185	C	0.944128	0.470768	0.381012
186	C	0.888834	0.442699	0.384944
187	H	0.871698	0.433466	0.415509
188	C	0.020498	0.509332	0.331636
189	C	0.092899	0.546669	0.61508
190	C	0.128979	0.563259	0.650351
191	C	0.109071	0.5533	0.360646
192	H	0.859325	0.427495	0.610068
193	N	0.040749	0.520308	0.623439
194	C	0.054516	0.525969	0.368777
195	C	0.033034	0.515138	0.411891
196	C	0.978134	0.487575	0.417974
197	H	0.134706	0.567251	0.386632
198	H	0.105478	0.553819	0.583037
199	O	0.06454	0.530739	0.447981
200	O	0.958815	0.477706	0.459691
201	N	0.181405	0.592201	0.64212
202	H	0.19252	0.61916	0.619316
203	N	0.803328	0.398176	0.351005
204	H	0.789814	0.37072	0.373502
205	C	0.342497	0.716463	0.660474
206	C	0.288801	0.677904	0.660771
207	C	0.272543	0.623831	0.660458
208	C	0.311105	0.608694	0.660762
209	C	0.365179	0.64651	0.993792
210	C	0.380318	0.700211	0.660745
211	H	0.299539	0.569577	0.662162
212	H	0.419432	0.727758	0.662186
213	H	0.26125	0.68947	0.662179
214	C	0.358301	0.770399	0.663197
215	C	0.403317	0.630714	0.99651
216	C	0.218608	0.585688	0.663167
217	O	0.446633	0.65997	0.688172
218	O	0.329038	0.784463	0.688175
219	O	0.204545	0.542371	0.688155
220	C	0.643784	0.274672	0.659671
221	C	0.697629	0.312751	0.659262
222	C	0.714341	0.366915	0.659665
223	C	0.676262	0.38268	0.659262
224	C	0.622097	0.345226	0.993006
225	C	0.606331	0.291382	0.659268
226	H	0.688181	0.421916	0.658776
227	H	0.567094	0.264064	0.658789
228	H	0.724947	0.300831	0.658782
229	C	0.627402	0.220574	0.659456
230	C	0.584382	0.36161	0.992784
231	C	0.768437	0.404626	0.65944
232	O	0.540443	0.333815	0.634795
233	O	0.655195	0.204426	0.634798
234	O	0.784581	0.448576	0.634795
235	C	0.561393	0.426654	0.680388
236	C	0.549383	0.439037	0.971834
237	N	0.523052	0.465571	0.968665
238	C	0.506998	0.481596	0.67111
239	C	0.518252	0.471165	0.714353
240	C	0.546319	0.44394	0.718285
241	H	0.555545	0.436028	0.748851
242	C	0.479691	0.508974	0.664978
243	C	0.442355	0.544041	0.948421
244	C	0.425757	0.563523	0.983688
245	C	0.43571	0.553568	0.693987
246	H	0.561539	0.429648	0.943409
247	N	0.468719	0.518253	0.95678
248	C	0.463046	0.526346	0.702118
249	C	0.473871	0.515692	0.745233
250	C	0.501434	0.488353	0.751315
251	H	0.421756	0.565247	0.719973
252	H	0.435211	0.549474	0.916379
253	O	0.458263	0.531587	0.781323
254	O	0.511298	0.478897	0.793032
255	N	0.396813	0.587004	0.975458
256	H	0.36986	0.571164	0.952654
257	N	0.590844	0.402957	0.684343
258	H	0.618299	0.416895	0.706843
259	C	0.562358	0.132538	0.680391
260	C	0.549974	0.108145	0.971837
261	N	0.52344	0.055281	0.968668
262	C	0.507419	0.023203	0.671116
263	C	0.517846	0.044889	0.714356
264	C	0.54507	0.100181	0.718288
265	H	0.552982	0.117319	0.748854
266	C	0.480034	0.968514	0.664984
267	C	0.444969	0.89611	0.948428
268	C	0.425487	0.860034	0.983698
269	C	0.43544	0.879944	0.693994
270	H	0.559365	0.129689	0.943412
271	N	0.470756	0.948263	0.956787
272	C	0.462661	0.934501	0.702125
273	C	0.473316	0.955982	0.745239
274	C	0.500653	0.010883	0.751322
275	H	0.423758	0.85431	0.719983
276	H	0.439536	0.883531	0.916388
277	O	0.457416	0.924479	0.781329
278	O	0.510109	0.030205	0.793035
279	N	0.402005	0.807607	0.975468
280	H	0.417847	0.796493	0.952664
281	N	0.586055	0.185689	0.684346
282	H	0.572116	0.199203	0.706846
283	C	0.856478	0.427632	0.680381
284	C	0.880867	0.439646	0.971824
285	N	0.933735	0.465979	0.968658
286	C	0.96581	0.482028	0.671103
287	C	0.944128	0.470768	0.714346
288	C	0.888834	0.442699	0.718275
289	H	0.871698	0.433466	0.748841
290	C	0.020498	0.509332	0.664971
291	C	0.092899	0.546669	0.948415
292	C	0.128979	0.563259	0.983682
293	C	0.109071	0.5533	0.693977
294	H	0.859325	0.427495	0.943399
295	N	0.040749	0.520308	0.95677
296	C	0.054516	0.525969	0.702112
297	C	0.033034	0.515138	0.745226
298	C	0.978134	0.487575	0.751309
299	H	0.134706	0.567251	0.719967
300	H	0.105478	0.553819	0.916372
301	O	0.06454	0.530739	0.781316
302	O	0.958815	0.477706	0.793026
303	N	0.181405	0.592201	0.975451
304	H	0.19252	0.61916	0.95265
305	N	0.803328	0.398176	0.684336
306	H	0.789814	0.37072	0.706836
