data_C189H117N27O9_2018-02-15_10:41:37
#******************************************
#
# CIF file created by Zeo++
# Zeo++ is an open source package to
# analyze microporous materials
#
#*******************************************

_cell_length_a		29.8043   
_cell_length_b		29.8042   
_cell_length_c		29.685   
_cell_angle_alpha		90   
_cell_angle_beta		90   
_cell_angle_gamma		120   

_symmetry_space_group_name_H-M		'P1'
_symmetry_Int_Tables_number		1
_symmetry_cell_setting		Monoclinic

loop_
_symmetry_equiv_pos_as_xyz
'+x,+y,+z'

loop_
_atom_site_label
_atom_site_type_symbol
_atom_site_fract_x
_atom_site_fract_y
_atom_site_fract_z
1	C	0.03145	0.505277	0.299649
2	C	0.063085	0.532195	0.003499
3	N	0.037444	0.529518	0.042227
4	H	0.046709	0.505513	0.268795
5	C	0.03145	0.505277	0.632982
6	C	0.063085	0.532195	0.33683
7	N	0.037444	0.529518	0.375559
8	H	0.046709	0.505513	0.602128
9	C	0.03145	0.505277	0.966318
10	C	0.063085	0.532195	0.670162
11	N	0.037444	0.529518	0.708896
12	H	0.046709	0.505513	0.935464
13	C	0.118606	0.56016	0.002845
14	H	0.12923	0.515935	0.952001
15	H	0.12809	0.613571	0.054649
16	C	0.118606	0.56016	0.336177
17	H	0.12923	0.515935	0.285335
18	H	0.12809	0.613571	0.387983
19	C	0.118606	0.56016	0.669512
20	H	0.12923	0.515935	0.618668
21	H	0.12809	0.613571	0.721316
22	C	0.14754	0.546697	0.973514
23	C	0.146973	0.602111	0.03275
24	C	0.14754	0.546697	0.306848
25	C	0.146973	0.602111	0.366083
26	C	0.14754	0.546697	0.640181
27	C	0.146973	0.602111	0.69942
28	C	0.285849	0.644089	0.003802
29	C	0.3143	0.617678	0.003819
30	C	0.369165	0.644407	0.003795
31	C	0.395575	0.699266	0.003812
32	C	0.368847	0.727405	0.003798
33	C	0.313985	0.698953	0.003819
34	C	0.397066	0.616767	0.003522
35	C	0.3835	0.574445	0.03286
36	C	0.411146	0.547511	0.032743
37	C	0.453098	0.561098	0.002838
38	C	0.466568	0.603502	0.973514
39	C	0.439323	0.630839	0.973969
40	C	0.230309	0.616186	0.003532
41	C	0.20212	0.573925	0.973982
42	C	0.201553	0.629758	0.032864
43	C	0.396485	0.782943	0.003519
44	C	0.382409	0.811129	0.973972
45	C	0.409737	0.86571	0.973521
46	C	0.452156	0.894651	0.002828
47	C	0.465753	0.866283	0.032726
48	C	0.438837	0.811706	0.03283
49	H	0.221193	0.562922	0.951863
50	H	0.22019	0.659505	0.055367
51	H	0.352305	0.792052	0.951877
52	H	0.397283	0.88402	0.952011
53	H	0.449937	0.793075	0.055345
54	H	0.496103	0.88517	0.054616
55	H	0.45032	0.660911	0.951846
56	H	0.497311	0.615938	0.951984
57	H	0.399692	0.517171	0.054644
58	H	0.353758	0.563337	0.055365
59	H	0.29458	0.578005	0.003751
60	H	0.294033	0.718673	0.003751
61	H	0.435247	0.719219	0.003738
62	C	0.730338	0.367049	0.00391
63	C	0.701138	0.392744	0.003889
64	C	0.646206	0.365935	0.003903
65	C	0.620509	0.311039	0.003879
66	C	0.647319	0.282919	0.003899
67	C	0.702217	0.312117	0.003893
68	C	0.617779	0.393426	0.004583
69	C	0.63551	0.440766	0.981063
70	C	0.608588	0.468394	0.982821
71	C	0.562368	0.449948	0.00806
72	C	0.543322	0.401624	0.029986
73	C	0.570781	0.374527	0.028908
74	C	0.786256	0.395476	0.004597
75	C	0.814356	0.442475	0.02892
76	C	0.868911	0.469932	0.03
77	C	0.898187	0.450886	0.008074
78	C	0.870412	0.404662	0.982838
79	C	0.815865	0.377744	0.981073
80	C	0.619827	0.227003	0.00458
81	C	0.638704	0.198901	0.028928
82	C	0.611594	0.144345	0.030018
83	C	0.563283	0.115069	0.008069
84	C	0.544876	0.142849	0.982788
85	C	0.572503	0.197398	0.981033
86	H	0.887055	0.504188	0.047292
87	H	0.795358	0.457069	0.047067
88	H	0.88974	0.38954	0.96586
89	H	0.797992	0.344918	0.961818
90	H	0.672286	0.217896	0.047092
91	H	0.627688	0.126197	0.047332
92	H	0.557573	0.215276	0.961757
93	H	0.510428	0.123529	0.965803
94	H	0.556184	0.34093	0.047049
95	H	0.509061	0.385509	0.047273
96	H	0.623718	0.502848	0.96585
97	H	0.66834	0.455721	0.961808
98	H	0.720537	0.432328	0.004048
99	H	0.722399	0.292717	0.004054
100	H	0.580928	0.290855	0.004027
101	C	0.535664	0.478719	0.009812
102	N	0.533158	0.501732	0.304289
103	C	0.507979	0.528825	0.299638
104	C	0.481067	0.533544	0.003488
105	N	0.483738	0.510573	0.042218
106	C	0.509424	0.483906	0.047849
107	H	0.507739	0.543845	0.268785
108	C	0.509952	0.466925	0.092304
109	O	0.467356	0.451498	0.118261
110	N	0.552973	0.472032	0.11241
111	H	0.586327	0.488862	0.097231
112	H	0.552156	0.463404	0.144107
113	C	0.534499	0.059593	0.009822
114	N	0.511465	0.034073	0.304304
115	C	0.48435	0.981803	0.299658
116	C	0.479698	0.950173	0.003488
117	N	0.502704	0.975813	0.042208
118	C	0.529397	0.028164	0.047834
119	H	0.469391	0.966546	0.268789
120	C	0.546295	0.045628	0.092306
121	O	0.562002	0.01866	0.118218
122	N	0.540981	0.083395	0.112458
123	H	0.524604	0.100306	0.097173
124	H	0.550214	0.091708	0.144004
125	C	0.953663	0.477595	0.009825
126	N	0.979181	0.480094	0.304301
127	C	0.985091	0.503832	0.047861
128	C	0.967585	0.503305	0.092317
129	O	0.994756	0.545903	0.118273
130	N	0.929672	0.460285	0.112423
131	H	0.913147	0.426927	0.097244
132	H	0.921861	0.461098	0.144121
133	C	0.285849	0.644089	0.337136
134	C	0.3143	0.617678	0.33715
135	C	0.369165	0.644407	0.337129
136	C	0.395575	0.699266	0.337143
137	C	0.368847	0.727405	0.337129
138	C	0.313985	0.698953	0.33715
139	C	0.397066	0.616767	0.336855
140	C	0.3835	0.574445	0.366194
141	C	0.411146	0.547511	0.366077
142	C	0.453098	0.561098	0.33617
143	C	0.466568	0.603502	0.306847
144	C	0.439323	0.630839	0.307302
145	C	0.230309	0.616186	0.336863
146	C	0.20212	0.573925	0.307314
147	C	0.201553	0.629758	0.366198
148	C	0.396485	0.782943	0.336851
149	C	0.382409	0.811129	0.307303
150	C	0.409737	0.86571	0.306852
151	C	0.452156	0.894651	0.336162
152	C	0.465753	0.866283	0.36606
153	C	0.438837	0.811706	0.366164
154	H	0.221193	0.562922	0.285194
155	H	0.22019	0.659505	0.388701
156	H	0.352305	0.792052	0.28521
157	H	0.397283	0.88402	0.285344
158	H	0.449937	0.793075	0.388681
159	H	0.496103	0.88517	0.38795
160	H	0.45032	0.660911	0.28518
161	H	0.497311	0.615938	0.285318
162	H	0.399692	0.517171	0.387977
163	H	0.353758	0.563337	0.388697
164	H	0.29458	0.578005	0.337082
165	H	0.294033	0.718673	0.337082
166	H	0.435247	0.719219	0.337072
167	C	0.730338	0.367049	0.337244
168	C	0.701138	0.392744	0.33722
169	C	0.646206	0.365935	0.337234
170	C	0.620509	0.311039	0.33721
171	C	0.647319	0.282919	0.33723
172	C	0.702217	0.312117	0.337224
173	C	0.617779	0.393426	0.337914
174	C	0.63551	0.440766	0.314394
175	C	0.608588	0.468394	0.316155
176	C	0.562368	0.449948	0.341394
177	C	0.543322	0.401624	0.363321
178	C	0.570781	0.374527	0.362243
179	C	0.786256	0.395476	0.337928
180	C	0.814356	0.442475	0.362253
181	C	0.868911	0.469932	0.363334
182	C	0.898187	0.450886	0.341408
183	C	0.870412	0.404662	0.316171
184	C	0.815865	0.377744	0.314406
185	C	0.619827	0.227003	0.337911
186	C	0.638704	0.198901	0.362263
187	C	0.611594	0.144345	0.363351
188	C	0.563283	0.115069	0.341401
189	C	0.544876	0.142849	0.31612
190	C	0.572503	0.197398	0.314366
191	H	0.887055	0.504188	0.380626
192	H	0.795358	0.457069	0.3804
193	H	0.88974	0.38954	0.299191
194	H	0.797992	0.344918	0.29515
195	H	0.672286	0.217896	0.380424
196	H	0.627688	0.126197	0.380666
197	H	0.557573	0.215276	0.295091
198	H	0.510428	0.123529	0.299136
199	H	0.556184	0.34093	0.380383
200	H	0.509061	0.385509	0.380606
201	H	0.623718	0.502848	0.299181
202	H	0.66834	0.455721	0.29514
203	H	0.720537	0.432328	0.337379
204	H	0.722399	0.292717	0.337385
205	H	0.580928	0.290855	0.337362
206	C	0.535664	0.478719	0.343146
207	N	0.533158	0.501732	0.637621
208	C	0.507979	0.528825	0.632972
209	C	0.481067	0.533544	0.336822
210	N	0.483738	0.510573	0.375553
211	C	0.509424	0.483906	0.381182
212	H	0.507739	0.543845	0.602118
213	C	0.509952	0.466925	0.425639
214	O	0.467356	0.451498	0.451594
215	N	0.552973	0.472032	0.445743
216	H	0.586327	0.488862	0.430564
217	H	0.552156	0.463404	0.477442
218	C	0.534499	0.059593	0.343156
219	N	0.511465	0.034073	0.637638
220	C	0.48435	0.981803	0.632992
221	C	0.479698	0.950173	0.336821
222	N	0.502704	0.975813	0.375543
223	C	0.529397	0.028164	0.381168
224	H	0.469391	0.966546	0.602121
225	C	0.546295	0.045628	0.425642
226	O	0.562002	0.01866	0.451551
227	N	0.540981	0.083395	0.445793
228	H	0.524604	0.100306	0.430506
229	H	0.550214	0.091708	0.477338
230	C	0.953663	0.477595	0.343159
231	N	0.979181	0.480094	0.637634
232	C	0.985091	0.503832	0.381195
233	C	0.967585	0.503305	0.425652
234	O	0.994756	0.545903	0.451608
235	N	0.929672	0.460285	0.445756
236	H	0.913147	0.426927	0.430577
237	H	0.921861	0.461098	0.477456
238	C	0.285849	0.644089	0.670469
239	C	0.3143	0.617678	0.670482
240	C	0.369165	0.644407	0.670462
241	C	0.395575	0.699266	0.670476
242	C	0.368847	0.727405	0.670462
243	C	0.313985	0.698953	0.670482
244	C	0.397066	0.616767	0.670189
245	C	0.3835	0.574445	0.699527
246	C	0.411146	0.547511	0.699409
247	C	0.453098	0.561098	0.669502
248	C	0.466568	0.603502	0.640181
249	C	0.439323	0.630839	0.640636
250	C	0.230309	0.616186	0.670196
251	C	0.20212	0.573925	0.640649
252	C	0.201553	0.629758	0.699531
253	C	0.396485	0.782943	0.670186
254	C	0.382409	0.811129	0.640636
255	C	0.409737	0.86571	0.640184
256	C	0.452156	0.894651	0.669495
257	C	0.465753	0.866283	0.699393
258	C	0.438837	0.811706	0.699497
259	H	0.221193	0.562922	0.618527
260	H	0.22019	0.659505	0.722034
261	H	0.352305	0.792052	0.618544
262	H	0.397283	0.88402	0.618679
263	H	0.449937	0.793075	0.722013
264	H	0.496103	0.88517	0.721282
265	H	0.45032	0.660911	0.618513
266	H	0.497311	0.615938	0.618652
267	H	0.399692	0.517171	0.721313
268	H	0.353758	0.563337	0.722034
269	H	0.29458	0.578005	0.670415
270	H	0.294033	0.718673	0.670418
271	H	0.435247	0.719219	0.670405
272	C	0.730338	0.367049	0.670577
273	C	0.701138	0.392744	0.670557
274	C	0.646206	0.365935	0.67057
275	C	0.620509	0.311039	0.670543
276	C	0.647319	0.282919	0.670563
277	C	0.702217	0.312117	0.670557
278	C	0.617779	0.393426	0.671247
279	C	0.63551	0.440766	0.647727
280	C	0.608588	0.468394	0.649489
281	C	0.562368	0.449948	0.674727
282	C	0.543322	0.401624	0.696654
283	C	0.570781	0.374527	0.695576
284	C	0.786256	0.395476	0.671261
285	C	0.814356	0.442475	0.695589
286	C	0.868911	0.469932	0.696667
287	C	0.898187	0.450886	0.67474
288	C	0.870412	0.404662	0.649506
289	C	0.815865	0.377744	0.64774
290	C	0.619827	0.227003	0.671247
291	C	0.638704	0.198901	0.695596
292	C	0.611594	0.144345	0.696684
293	C	0.563283	0.115069	0.674737
294	C	0.544876	0.142849	0.649455
295	C	0.572503	0.197398	0.6477
296	H	0.887055	0.504188	0.713959
297	H	0.795358	0.457069	0.713733
298	H	0.88974	0.38954	0.632524
299	H	0.797992	0.344918	0.628485
300	H	0.672286	0.217896	0.71376
301	H	0.627688	0.126197	0.713999
302	H	0.557573	0.215276	0.628424
303	H	0.510428	0.123529	0.63247
304	H	0.556184	0.34093	0.713716
305	H	0.509061	0.385509	0.713942
306	H	0.623718	0.502848	0.632514
307	H	0.66834	0.455721	0.628475
308	H	0.720537	0.432328	0.670715
309	H	0.722399	0.292717	0.670722
310	H	0.580928	0.290855	0.670695
311	C	0.535664	0.478719	0.676479
312	N	0.533158	0.501732	0.970957
313	C	0.507979	0.528825	0.966305
314	C	0.481067	0.533544	0.670156
315	N	0.483738	0.510573	0.708886
316	C	0.509424	0.483906	0.714518
317	H	0.507739	0.543845	0.935451
318	C	0.509952	0.466925	0.758971
319	O	0.467356	0.451498	0.784927
320	N	0.552973	0.472032	0.779079
321	H	0.586327	0.488862	0.7639
322	H	0.552156	0.463404	0.810775
323	C	0.534499	0.059593	0.676489
324	N	0.511465	0.034073	0.97097
325	C	0.48435	0.981803	0.966325
326	C	0.479698	0.950173	0.670156
327	N	0.502704	0.975813	0.708875
328	C	0.529397	0.028164	0.714501
329	H	0.469391	0.966546	0.935458
330	C	0.546295	0.045628	0.758975
331	O	0.562002	0.01866	0.784887
332	N	0.540981	0.083395	0.779126
333	H	0.524604	0.100306	0.763839
334	H	0.550214	0.091708	0.810671
335	C	0.953663	0.477595	0.676492
336	N	0.979181	0.480094	0.970967
337	C	0.985091	0.503832	0.714528
338	C	0.967585	0.503305	0.758985
339	O	0.994756	0.545903	0.784941
340	N	0.929672	0.460285	0.779089
341	H	0.913147	0.426927	0.763913
342	H	0.921861	0.461098	0.810789
