data_C216H126N24_2018-02-15_10:40:49
#******************************************
#
# CIF file created by Zeo++
# Zeo++ is an open source package to
# analyze microporous materials
#
#*******************************************

_cell_length_a		32.2191   
_cell_length_b		32.2192   
_cell_length_c		29.2014   
_cell_angle_alpha		90   
_cell_angle_beta		90   
_cell_angle_gamma		120   

_symmetry_space_group_name_H-M		'P1'
_symmetry_Int_Tables_number		1
_symmetry_cell_setting		Monoclinic

loop_
_symmetry_equiv_pos_as_xyz
'+x,+y,+z'

loop_
_atom_site_label
_atom_site_type_symbol
_atom_site_fract_x
_atom_site_fract_y
_atom_site_fract_z
1	C	0.276496	0.657457	0.975395
2	C	0.225999	0.632467	0.976265
3	C	0.199897	0.602617	0.013671
4	C	0.22713	0.599201	0.050224
5	C	0.277598	0.624751	0.049801
6	H	0.208539	0.637298	0.949376
7	H	0.210537	0.577354	0.077618
8	C	0.046169	0.52642	0.015529
9	C	0.120207	0.559277	0.307701
10	C	0.148209	0.577167	0.014681
11	C	0.122327	0.56843	0.056262
12	N	0.071558	0.535347	0.309373
13	C	0.071684	0.542712	0.057425
14	C	0.046087	0.532774	0.099008
15	H	0.063873	0.544059	0.12953
16	H	0.140454	0.581421	0.0864
17	H	0.135881	0.563043	0.276428
18	C	0.276496	0.657457	0.308729
19	C	0.225999	0.632467	0.3096
20	C	0.199897	0.602617	0.347004
21	C	0.22713	0.599201	0.383557
22	C	0.277598	0.624751	0.383136
23	H	0.208539	0.637298	0.282709
24	H	0.210537	0.577354	0.41095
25	C	0.046169	0.52642	0.348864
26	C	0.120207	0.559277	0.641035
27	C	0.148209	0.577167	0.348014
28	C	0.122327	0.56843	0.389594
29	N	0.071558	0.535347	0.642706
30	C	0.071684	0.542712	0.390759
31	C	0.046087	0.532774	0.432342
32	H	0.063873	0.544059	0.462865
33	H	0.140454	0.581421	0.419733
34	H	0.135881	0.563043	0.609762
35	C	0.276496	0.657457	0.642062
36	C	0.225999	0.632467	0.642932
37	C	0.199897	0.602617	0.680337
38	C	0.22713	0.599201	0.716891
39	C	0.277598	0.624751	0.716469
40	H	0.208539	0.637298	0.616043
41	H	0.210537	0.577354	0.744283
42	C	0.046169	0.52642	0.682197
43	C	0.120207	0.559277	0.974368
44	C	0.148209	0.577167	0.681348
45	C	0.122327	0.56843	0.722928
46	N	0.071558	0.535347	0.976039
47	C	0.071684	0.542712	0.724092
48	C	0.046087	0.532774	0.765676
49	H	0.063873	0.544059	0.796198
50	H	0.140454	0.581421	0.753067
51	H	0.135881	0.563043	0.943096
52	N	0.353874	0.679867	0.011794
53	C	0.379544	0.654544	0.012466
54	C	0.379052	0.73088	0.01201
55	C	0.302893	0.654088	0.012287
56	C	0.410615	0.660292	0.048965
57	C	0.431425	0.60333	0.01364
58	C	0.399656	0.597732	0.977375
59	C	0.374616	0.623181	0.976508
60	C	0.410955	0.757218	0.976354
61	C	0.430499	0.834046	0.013048
62	C	0.397496	0.806802	0.048172
63	C	0.37285	0.756344	0.048091
64	H	0.41512	0.683111	0.075298
65	H	0.352105	0.618203	0.949749
66	H	0.393548	0.574239	0.951253
67	H	0.294057	0.67876	0.947931
68	H	0.416388	0.7396	0.949965
69	H	0.390256	0.82332	0.074304
70	H	0.349687	0.738141	0.074238
71	H	0.295933	0.62155	0.076891
72	N	0.353874	0.679867	0.345127
73	C	0.379544	0.654544	0.345799
74	C	0.379052	0.73088	0.345343
75	C	0.302893	0.654088	0.345621
76	C	0.410615	0.660292	0.3823
77	C	0.431425	0.60333	0.346973
78	C	0.399656	0.597732	0.310707
79	C	0.374616	0.623181	0.30984
80	C	0.410955	0.757218	0.309689
81	C	0.430499	0.834046	0.346381
82	C	0.397496	0.806802	0.381506
83	C	0.37285	0.756344	0.381424
84	H	0.41512	0.683111	0.408631
85	H	0.352105	0.618203	0.283082
86	H	0.393548	0.574239	0.284587
87	H	0.294057	0.67876	0.281266
88	H	0.416388	0.7396	0.2833
89	H	0.390256	0.82332	0.407638
90	H	0.349687	0.738141	0.40757
91	H	0.295933	0.62155	0.410224
92	N	0.353874	0.679867	0.678461
93	C	0.379544	0.654544	0.679132
94	C	0.379052	0.73088	0.678677
95	C	0.302893	0.654088	0.678954
96	C	0.410615	0.660292	0.715634
97	C	0.431425	0.60333	0.680307
98	C	0.399656	0.597732	0.644041
99	C	0.374616	0.623181	0.643175
100	C	0.410955	0.757218	0.643021
101	C	0.430499	0.834046	0.679714
102	C	0.397496	0.806802	0.714839
103	C	0.37285	0.756344	0.714757
104	H	0.41512	0.683111	0.741965
105	H	0.352105	0.618203	0.616416
106	H	0.393548	0.574239	0.617919
107	H	0.294057	0.67876	0.614597
108	H	0.416388	0.7396	0.616635
109	H	0.390256	0.82332	0.740972
110	H	0.349687	0.738141	0.740903
111	H	0.295933	0.62155	0.743557
112	C	0.43644	0.635646	0.049189
113	C	0.436545	0.807723	0.977197
114	C	0.43644	0.635646	0.382523
115	C	0.436545	0.807723	0.310529
116	C	0.43644	0.635646	0.715856
117	C	0.436545	0.807723	0.643863
118	H	0.459738	0.64243	0.075654
119	H	0.460541	0.824986	0.95141
120	C	0.457181	0.577336	0.014496
121	H	0.458626	0.570623	0.086695
122	C	0.456666	0.885841	0.013966
123	H	0.460728	0.893983	0.086248
124	H	0.459738	0.64243	0.408987
125	H	0.460541	0.824986	0.284742
126	C	0.457181	0.577336	0.347829
127	H	0.458626	0.570623	0.420028
128	C	0.456666	0.885841	0.347299
129	H	0.460728	0.893983	0.419579
130	H	0.459738	0.64243	0.742321
131	H	0.460541	0.824986	0.618077
132	C	0.457181	0.577336	0.681163
133	H	0.458626	0.570623	0.753361
134	C	0.456666	0.885841	0.680632
135	H	0.460728	0.893983	0.752913
136	N	0.687223	0.346589	0.0119
137	C	0.6614	0.371768	0.012085
138	C	0.661904	0.295603	0.012376
139	C	0.738234	0.372284	0.012602
140	C	0.763522	0.40418	0.048594
141	C	0.813992	0.430034	0.048869
142	C	0.841421	0.424096	0.014051
143	C	0.815249	0.391368	0.978385
144	C	0.764757	0.366471	0.977299
145	C	0.630658	0.366485	0.048745
146	C	0.605022	0.391311	0.048939
147	C	0.60992	0.423361	0.013181
148	C	0.641256	0.428422	0.976683
149	C	0.666164	0.402822	0.975888
150	C	0.666239	0.270195	0.049621
151	C	0.641451	0.219725	0.049813
152	C	0.610562	0.192577	0.013352
153	C	0.606477	0.21881	0.976255
154	C	0.631924	0.269307	0.97556
155	H	0.582057	0.384967	0.075608
156	H	0.626379	0.343999	0.07532
157	H	0.688517	0.407528	0.949068
158	H	0.647214	0.451703	0.9504
159	H	0.745182	0.40937	0.074455
160	H	0.830367	0.454039	0.074842
161	H	0.688021	0.288445	0.076599
162	H	0.647029	0.203077	0.076958
163	H	0.584051	0.20145	0.949421
164	H	0.628033	0.286944	0.948246
165	H	0.747291	0.343276	0.950965
166	H	0.832598	0.384433	0.952835
167	C	0.584467	0.449638	0.01414
168	C	0.568927	0.462117	0.306964
169	N	0.544903	0.486749	0.308635
170	C	0.533625	0.500895	0.014958
171	C	0.547453	0.489219	0.057019
172	C	0.57329	0.464418	0.055901
173	H	0.584545	0.457623	0.086283
174	C	0.508289	0.526323	0.015035
175	C	0.472021	0.564255	0.307225
176	C	0.469321	0.56338	0.056215
177	H	0.574496	0.452032	0.275464
178	N	0.496169	0.539744	0.308763
179	C	0.495301	0.538719	0.05718
180	C	0.508643	0.526348	0.098813
181	C	0.535024	0.502372	0.098727
182	H	0.499798	0.5352	0.129497
183	H	0.544455	0.49401	0.129355
184	H	0.465817	0.573766	0.275712
185	C	0.584409	0.140868	0.01417
186	C	0.573652	0.112973	0.307037
187	N	0.548983	0.064311	0.308574
188	C	0.53321	0.038787	0.014733
189	C	0.543144	0.064192	0.056762
190	C	0.567976	0.11483	0.055749
191	H	0.573535	0.132832	0.086025
192	C	0.507777	0.988017	0.014691
193	C	0.471394	0.913881	0.306754
194	C	0.469101	0.911917	0.055721
195	H	0.584996	0.128733	0.275717
196	N	0.495902	0.962539	0.308386
197	C	0.49369	0.96255	0.056755
198	C	0.504316	0.988157	0.098382
199	C	0.528265	0.038512	0.098353
200	H	0.494188	0.970388	0.128997
201	H	0.535314	0.056229	0.128961
202	H	0.463084	0.89827	0.27515
203	C	0.893233	0.449921	0.014994
204	C	0.921243	0.462551	0.307779
205	N	0.969897	0.486753	0.309354
206	C	0.995412	0.50111	0.015596
207	C	0.970011	0.490563	0.057655
208	C	0.919368	0.464451	0.056698
209	H	0.901484	0.455455	0.087255
210	H	0.905637	0.454666	0.276173
211	C	0.995727	0.506389	0.099168
212	H	0.97802	0.499393	0.129779
213	N	0.687223	0.346589	0.345234
214	C	0.6614	0.371768	0.345418
215	C	0.661904	0.295603	0.34571
216	C	0.738234	0.372284	0.345936
217	C	0.763522	0.40418	0.381927
218	C	0.813992	0.430034	0.382201
219	C	0.841421	0.424096	0.347384
220	C	0.815249	0.391368	0.311717
221	C	0.764757	0.366471	0.310634
222	C	0.630658	0.366485	0.382078
223	C	0.605022	0.391311	0.382273
224	C	0.60992	0.423361	0.346514
225	C	0.641256	0.428422	0.310017
226	C	0.666164	0.402822	0.309223
227	C	0.666239	0.270195	0.382954
228	C	0.641451	0.219725	0.383146
229	C	0.610562	0.192577	0.346686
230	C	0.606477	0.21881	0.309588
231	C	0.631924	0.269307	0.308893
232	H	0.582057	0.384967	0.408943
233	H	0.626379	0.343999	0.408655
234	H	0.688517	0.407528	0.282401
235	H	0.647214	0.451703	0.283734
236	H	0.745182	0.40937	0.407789
237	H	0.830367	0.454039	0.408176
238	H	0.688021	0.288445	0.409933
239	H	0.647029	0.203077	0.410292
240	H	0.584051	0.20145	0.282754
241	H	0.628033	0.286944	0.28158
242	H	0.747291	0.343276	0.284298
243	H	0.832598	0.384433	0.286168
244	C	0.584467	0.449638	0.347473
245	C	0.568927	0.462117	0.640298
246	N	0.544903	0.486749	0.641969
247	C	0.533625	0.500895	0.348292
248	C	0.547453	0.489219	0.390351
249	C	0.57329	0.464418	0.389235
250	H	0.584545	0.457623	0.419617
251	C	0.508289	0.526323	0.348367
252	C	0.472021	0.564255	0.640559
253	C	0.469321	0.56338	0.389547
254	H	0.574496	0.452032	0.608796
255	N	0.496169	0.539744	0.642096
256	C	0.495301	0.538719	0.390512
257	C	0.508643	0.526348	0.432147
258	C	0.535024	0.502372	0.432062
259	H	0.499798	0.5352	0.462831
260	H	0.544455	0.49401	0.462687
261	H	0.465817	0.573766	0.609046
262	C	0.584409	0.140868	0.347504
263	C	0.573652	0.112973	0.64037
264	N	0.548983	0.064311	0.641908
265	C	0.53321	0.038787	0.348066
266	C	0.543144	0.064192	0.390094
267	C	0.567976	0.11483	0.389084
268	H	0.573535	0.132832	0.419357
269	C	0.507777	0.988017	0.348025
270	C	0.471394	0.913881	0.640086
271	C	0.469101	0.911917	0.389053
272	H	0.584996	0.128733	0.60905
273	N	0.495902	0.962539	0.641719
274	C	0.49369	0.96255	0.390088
275	C	0.504316	0.988157	0.431716
276	C	0.528265	0.038512	0.431685
277	H	0.494188	0.970388	0.462331
278	H	0.535314	0.056229	0.462293
279	H	0.463084	0.89827	0.608485
280	C	0.893233	0.449921	0.348326
281	C	0.921243	0.462551	0.641113
282	N	0.969897	0.486753	0.642689
283	C	0.995412	0.50111	0.348929
284	C	0.970011	0.490563	0.390988
285	C	0.919368	0.464451	0.390029
286	H	0.901484	0.455455	0.420586
287	H	0.905637	0.454666	0.609505
288	C	0.995727	0.506389	0.4325
289	H	0.97802	0.499393	0.463112
290	N	0.687223	0.346589	0.678567
291	C	0.6614	0.371768	0.678752
292	C	0.661904	0.295603	0.679043
293	C	0.738234	0.372284	0.679269
294	C	0.763522	0.40418	0.71526
295	C	0.813992	0.430034	0.715534
296	C	0.841421	0.424096	0.680718
297	C	0.815249	0.391368	0.645051
298	C	0.764757	0.366471	0.643966
299	C	0.630658	0.366485	0.715411
300	C	0.605022	0.391311	0.715606
301	C	0.60992	0.423361	0.679848
302	C	0.641256	0.428422	0.64335
303	C	0.666164	0.402822	0.642555
304	C	0.666239	0.270195	0.716288
305	C	0.641451	0.219725	0.71648
306	C	0.610562	0.192577	0.680019
307	C	0.606477	0.21881	0.642921
308	C	0.631924	0.269307	0.642226
309	H	0.582057	0.384967	0.742276
310	H	0.626379	0.343999	0.741985
311	H	0.688517	0.407528	0.615734
312	H	0.647214	0.451703	0.617067
313	H	0.745182	0.40937	0.741122
314	H	0.830367	0.454039	0.741509
315	H	0.688021	0.288445	0.743266
316	H	0.647029	0.203077	0.743626
317	H	0.584051	0.20145	0.616087
318	H	0.628033	0.286944	0.614913
319	H	0.747291	0.343276	0.617632
320	H	0.832598	0.384433	0.619501
321	C	0.584467	0.449638	0.680807
322	C	0.568927	0.462117	0.973632
323	N	0.544903	0.486749	0.975299
324	C	0.533625	0.500895	0.681625
325	C	0.547453	0.489219	0.723685
326	C	0.57329	0.464418	0.722568
327	H	0.584545	0.457623	0.75295
328	C	0.508289	0.526323	0.6817
329	C	0.472021	0.564255	0.973892
330	C	0.469321	0.56338	0.72288
331	H	0.574496	0.452032	0.94213
332	N	0.496169	0.539744	0.97543
333	C	0.495301	0.538719	0.723846
334	C	0.508643	0.526348	0.765481
335	C	0.535024	0.502372	0.765395
336	H	0.499798	0.5352	0.796164
337	H	0.544455	0.49401	0.79602
338	H	0.465817	0.573766	0.942376
339	C	0.584409	0.140868	0.680837
340	C	0.573652	0.112973	0.973704
341	N	0.548983	0.064311	0.975241
342	C	0.53321	0.038787	0.681399
343	C	0.543144	0.064192	0.723428
344	C	0.567976	0.11483	0.722418
345	H	0.573535	0.132832	0.75269
346	C	0.507777	0.988017	0.681358
347	C	0.471394	0.913881	0.973419
348	C	0.469101	0.911917	0.722387
349	H	0.584996	0.128733	0.942383
350	N	0.495902	0.962539	0.975053
351	C	0.49369	0.96255	0.723421
352	C	0.504316	0.988157	0.765049
353	C	0.528265	0.038512	0.765018
354	H	0.494188	0.970388	0.795664
355	H	0.535314	0.056229	0.795627
356	H	0.463084	0.89827	0.941815
357	C	0.893233	0.449921	0.681659
358	C	0.921243	0.462551	0.974447
359	N	0.969897	0.486753	0.976022
360	C	0.995412	0.50111	0.682262
361	C	0.970011	0.490563	0.724322
362	C	0.919368	0.464451	0.723363
363	H	0.901484	0.455455	0.75392
364	H	0.905637	0.454666	0.942839
365	C	0.995727	0.506389	0.765833
366	H	0.97802	0.499393	0.796445
