data_C198H144N18_2018-02-15_10:42:35
#******************************************
#
# CIF file created by Zeo++
# Zeo++ is an open source package to
# analyze microporous materials
#
#*******************************************

_cell_length_a		29.4813   
_cell_length_b		29.4813   
_cell_length_c		29.9032   
_cell_angle_alpha		90   
_cell_angle_beta		90   
_cell_angle_gamma		120   

_symmetry_space_group_name_H-M		'P1'
_symmetry_Int_Tables_number		1
_symmetry_cell_setting		Monoclinic

loop_
_symmetry_equiv_pos_as_xyz
'+x,+y,+z'

loop_
_atom_site_label
_atom_site_type_symbol
_atom_site_fract_x
_atom_site_fract_y
_atom_site_fract_z
1	C	0.029842	0.504223	0.300014
2	C	0.030524	0.527986	0.045449
3	C	0.029842	0.504223	0.633347
4	C	0.030524	0.527986	0.378782
5	C	0.029842	0.504223	0.96668
6	C	0.030524	0.527986	0.712115
7	H	0.048967	0.505457	0.271023
8	H	0.048721	0.524445	0.114003
9	H	0.048967	0.505457	0.604357
10	H	0.048721	0.524445	0.447337
11	H	0.048967	0.505457	0.937689
12	H	0.048721	0.524445	0.780669
13	C	0.362983	0.7224	0.997847
14	N	0.388177	0.694337	0.997907
15	C	0.362656	0.641065	0.997847
16	N	0.309398	0.615873	0.99791
17	C	0.281649	0.641394	0.997844
18	N	0.309713	0.69465	0.997907
19	C	0.390461	0.61292	0.998459
20	C	0.44598	0.63946	0.999686
21	C	0.473428	0.611823	0.001365
22	C	0.446144	0.556562	0.001938
23	C	0.390915	0.529592	7e-06
24	C	0.363608	0.557377	0.998395
25	C	0.391127	0.77835	0.998456
26	C	0.446674	0.807044	0.998392
27	C	0.474457	0.862133	0.999991
28	C	0.447489	0.890392	0.001929
29	C	0.392228	0.862415	0.001355
30	C	0.364589	0.80733	0.999683
31	C	0.225697	0.613586	0.998459
32	C	0.197008	0.640443	0.998399
33	C	0.141916	0.613135	0.999991
34	C	0.113655	0.557906	0.001925
35	C	0.141633	0.530622	0.001348
36	C	0.196719	0.55807	0.999676
37	H	0.514545	0.881466	0.000432
38	H	0.467829	0.78817	0.997573
39	H	0.371689	0.881928	0.002945
40	H	0.324559	0.788671	0.999884
41	H	0.215881	0.680472	0.997563
42	H	0.122581	0.633886	0.000422
43	H	0.215381	0.5367	0.999897
44	H	0.122122	0.490573	0.002954
45	H	0.32358	0.536223	0.997569
46	H	0.37016	0.489504	0.000429
47	H	0.513478	0.632359	0.002947
48	H	0.467351	0.679492	0.999887
49	C	0.642196	0.280839	0.99766
50	N	0.616682	0.308594	0.997727
51	C	0.64188	0.361852	0.997663
52	N	0.695151	0.387367	0.997727
53	C	0.723211	0.362168	0.997663
54	N	0.695457	0.308898	0.997727
55	C	0.613742	0.389664	0.998292
56	C	0.558196	0.362815	0.998205
57	C	0.530417	0.390125	0.999853
58	C	0.557389	0.445351	0.001829
59	C	0.61265	0.472631	0.001265
60	C	0.640287	0.445182	0.999562
61	C	0.614386	0.224888	0.998295
62	C	0.55887	0.195914	0.999576
63	C	0.531419	0.140829	0.001281
64	C	0.558698	0.112848	0.001836
65	C	0.613926	0.141102	0.99986
66	C	0.641234	0.196192	0.998215
67	C	0.779161	0.390306	0.998292
68	C	0.808137	0.363764	0.999559
69	C	0.863221	0.391398	0.001275
70	C	0.891201	0.446659	0.001838
71	C	0.86295	0.473633	0.99984
72	C	0.80786	0.445852	0.998215
73	H	0.491371	0.12132	0.002904
74	H	0.537501	0.214578	0.99979
75	H	0.634674	0.121766	0.000271
76	H	0.681261	0.215061	0.997352
77	H	0.789471	0.323732	0.999777
78	H	0.882729	0.370857	0.002898
79	H	0.78899	0.46701	0.997365
80	H	0.882283	0.513717	0.000288
81	H	0.680318	0.466548	0.999793
82	H	0.63319	0.512679	0.002906
83	H	0.49033	0.369374	0.000268
84	H	0.537039	0.322787	0.997349
85	C	0.529452	0.472968	0.005388
86	C	0.527226	0.499045	0.299992
87	C	0.499822	0.526431	0.300018
88	C	0.473762	0.52862	0.005441
89	C	0.476066	0.503346	0.045454
90	H	0.498585	0.544322	0.271029
91	H	0.545099	0.497831	0.270984
92	C	0.504197	0.475235	0.045427
93	C	0.45044	0.506902	0.087612
94	H	0.431195	0.530073	0.084694
95	H	0.47961	0.525083	0.114009
96	H	0.420732	0.46777	0.098305
97	C	0.5078	0.449596	0.08756
98	H	0.530993	0.430377	0.084601
99	H	0.468684	0.419869	0.098266
100	H	0.52599	0.478756	0.113963
101	C	0.531084	0.057294	0.00539
102	C	0.505008	0.028993	0.299992
103	C	0.477623	0.974206	0.300014
104	C	0.475428	0.945951	0.005436
105	C	0.500703	0.973528	0.045451
106	H	0.459733	0.955081	0.271024
107	H	0.506223	0.048085	0.270985
108	C	0.528813	0.029768	0.045428
109	C	0.497145	0.944341	0.087606
110	H	0.473971	0.901923	0.084685
111	H	0.478962	0.955327	0.114004
112	H	0.536277	0.953765	0.0983
113	C	0.554449	0.059005	0.087562
114	H	0.573671	0.101418	0.084607
115	H	0.584176	0.049615	0.098268
116	H	0.525287	0.048033	0.113965
117	C	0.946756	0.474597	0.005391
118	C	0.975053	0.476818	0.299993
119	C	0.058097	0.530285	0.005434
120	H	0.955963	0.458942	0.270986
121	C	0.974283	0.499856	0.045427
122	C	0.05971	0.553613	0.087604
123	H	0.102127	0.572852	0.084683
124	H	0.050292	0.583325	0.098296
125	C	0.945047	0.49626	0.08756
126	H	0.902633	0.473077	0.084604
127	H	0.954442	0.535381	0.098265
128	H	0.956016	0.478071	0.113964
129	C	0.362983	0.7224	0.331179
130	N	0.388177	0.694337	0.331242
131	C	0.362656	0.641065	0.331182
132	N	0.309398	0.615873	0.331243
133	C	0.281649	0.641394	0.331178
134	N	0.309713	0.69465	0.331242
135	C	0.390461	0.61292	0.331793
136	C	0.44598	0.63946	0.33302
137	C	0.473428	0.611823	0.334697
138	C	0.446144	0.556562	0.335272
139	C	0.390915	0.529592	0.33334
140	C	0.363608	0.557377	0.331731
141	C	0.391127	0.77835	0.331788
142	C	0.446674	0.807044	0.331726
143	C	0.474457	0.862133	0.333325
144	C	0.447489	0.890392	0.335262
145	C	0.392228	0.862415	0.33469
146	C	0.364589	0.80733	0.333015
147	C	0.225697	0.613586	0.331792
148	C	0.197008	0.640443	0.331732
149	C	0.141916	0.613135	0.333324
150	C	0.113655	0.557906	0.335259
151	C	0.141633	0.530622	0.334683
152	C	0.196719	0.55807	0.333009
153	H	0.514545	0.881466	0.333765
154	H	0.467829	0.78817	0.330906
155	H	0.371689	0.881928	0.336279
156	H	0.324559	0.788671	0.333218
157	H	0.215881	0.680472	0.330898
158	H	0.122581	0.633886	0.333756
159	H	0.215381	0.5367	0.33323
160	H	0.122122	0.490573	0.336289
161	H	0.32358	0.536223	0.330902
162	H	0.37016	0.489504	0.333761
163	H	0.513478	0.632359	0.336282
164	H	0.467351	0.679492	0.33322
165	C	0.642196	0.280839	0.330995
166	N	0.616682	0.308594	0.331061
167	C	0.64188	0.361852	0.330997
168	N	0.695151	0.387367	0.33106
169	C	0.723211	0.362168	0.330998
170	N	0.695457	0.308898	0.331061
171	C	0.613742	0.389664	0.331626
172	C	0.558196	0.362815	0.33154
173	C	0.530417	0.390125	0.333187
174	C	0.557389	0.445351	0.335162
175	C	0.61265	0.472631	0.3346
176	C	0.640287	0.445182	0.332896
177	C	0.614386	0.224888	0.331629
178	C	0.55887	0.195914	0.332908
179	C	0.531419	0.140829	0.334617
180	C	0.558698	0.112848	0.335168
181	C	0.613926	0.141102	0.333192
182	C	0.641234	0.196192	0.331547
183	C	0.779161	0.390306	0.331625
184	C	0.808137	0.363764	0.332894
185	C	0.863221	0.391398	0.334607
186	C	0.891201	0.446659	0.335172
187	C	0.86295	0.473633	0.333175
188	C	0.80786	0.445852	0.33155
189	H	0.491371	0.12132	0.336238
190	H	0.537501	0.214578	0.333123
191	H	0.634674	0.121766	0.333605
192	H	0.681261	0.215061	0.330687
193	H	0.789471	0.323732	0.33311
194	H	0.882729	0.370857	0.336232
195	H	0.78899	0.46701	0.330698
196	H	0.882283	0.513717	0.333622
197	H	0.680318	0.466548	0.333127
198	H	0.63319	0.512679	0.336238
199	H	0.49033	0.369374	0.3336
200	H	0.537039	0.322787	0.330684
201	C	0.529452	0.472968	0.33872
202	C	0.527226	0.499045	0.633324
203	C	0.499822	0.526431	0.633351
204	C	0.473762	0.52862	0.338773
205	C	0.476066	0.503346	0.378786
206	H	0.498585	0.544322	0.60436
207	H	0.545099	0.497831	0.604317
208	C	0.504197	0.475235	0.378759
209	C	0.45044	0.506902	0.420945
210	H	0.431195	0.530073	0.418026
211	H	0.47961	0.525083	0.44734
212	H	0.420732	0.46777	0.43164
213	C	0.5078	0.449596	0.420892
214	H	0.530993	0.430377	0.417935
215	H	0.468684	0.419869	0.4316
216	H	0.52599	0.478756	0.447297
217	C	0.531084	0.057294	0.338723
218	C	0.505008	0.028993	0.633324
219	C	0.477623	0.974206	0.633347
220	C	0.475428	0.945951	0.33877
221	C	0.500703	0.973528	0.378782
222	H	0.459733	0.955081	0.604357
223	H	0.506223	0.048085	0.604317
224	C	0.528813	0.029768	0.378762
225	C	0.497145	0.944341	0.420938
226	H	0.473971	0.901923	0.418019
227	H	0.478962	0.955327	0.447337
228	H	0.536277	0.953765	0.431633
229	C	0.554449	0.059005	0.420895
230	H	0.573671	0.101418	0.417939
231	H	0.584176	0.049615	0.4316
232	H	0.525287	0.048033	0.447297
233	C	0.946756	0.474597	0.338723
234	C	0.975053	0.476818	0.633327
235	C	0.058097	0.530285	0.338767
236	H	0.955963	0.458942	0.60432
237	C	0.974283	0.499856	0.378759
238	C	0.05971	0.553613	0.420938
239	H	0.102127	0.572852	0.418016
240	H	0.050292	0.583325	0.43163
241	C	0.945047	0.49626	0.420892
242	H	0.902633	0.473077	0.417939
243	H	0.954442	0.535381	0.4316
244	H	0.956016	0.478071	0.447297
245	C	0.362983	0.7224	0.664511
246	N	0.388177	0.694337	0.664575
247	C	0.362656	0.641065	0.664515
248	N	0.309398	0.615873	0.664575
249	C	0.281649	0.641394	0.664511
250	N	0.309713	0.69465	0.664575
251	C	0.390461	0.61292	0.665127
252	C	0.44598	0.63946	0.666354
253	C	0.473428	0.611823	0.668033
254	C	0.446144	0.556562	0.668604
255	C	0.390915	0.529592	0.666672
256	C	0.363608	0.557377	0.665063
257	C	0.391127	0.77835	0.66512
258	C	0.446674	0.807044	0.66506
259	C	0.474457	0.862133	0.666658
260	C	0.447489	0.890392	0.668594
261	C	0.392228	0.862415	0.668023
262	C	0.364589	0.80733	0.666347
263	C	0.225697	0.613586	0.665127
264	C	0.197008	0.640443	0.665066
265	C	0.141916	0.613135	0.666658
266	C	0.113655	0.557906	0.668591
267	C	0.141633	0.530622	0.668016
268	C	0.196719	0.55807	0.66634
269	H	0.514545	0.881466	0.6671
270	H	0.467829	0.78817	0.66424
271	H	0.371689	0.881928	0.669611
272	H	0.324559	0.788671	0.666551
273	H	0.215881	0.680472	0.66423
274	H	0.122581	0.633886	0.66709
275	H	0.215381	0.5367	0.666564
276	H	0.122122	0.490573	0.669621
277	H	0.32358	0.536223	0.664234
278	H	0.37016	0.489504	0.667093
279	H	0.513478	0.632359	0.669614
280	H	0.467351	0.679492	0.666554
281	C	0.642196	0.280839	0.664327
282	N	0.616682	0.308594	0.664394
283	C	0.64188	0.361852	0.664331
284	N	0.695151	0.387367	0.664394
285	C	0.723211	0.362168	0.664331
286	N	0.695457	0.308898	0.664394
287	C	0.613742	0.389664	0.664959
288	C	0.558196	0.362815	0.664872
289	C	0.530417	0.390125	0.666521
290	C	0.557389	0.445351	0.668494
291	C	0.61265	0.472631	0.667932
292	C	0.640287	0.445182	0.66623
293	C	0.614386	0.224888	0.664963
294	C	0.55887	0.195914	0.66624
295	C	0.531419	0.140829	0.667949
296	C	0.558698	0.112848	0.668501
297	C	0.613926	0.141102	0.666524
298	C	0.641234	0.196192	0.664879
299	C	0.779161	0.390306	0.664959
300	C	0.808137	0.363764	0.666227
301	C	0.863221	0.391398	0.667942
302	C	0.891201	0.446659	0.668504
303	C	0.86295	0.473633	0.666508
304	C	0.80786	0.445852	0.664882
305	H	0.491371	0.12132	0.669571
306	H	0.537501	0.214578	0.666457
307	H	0.634674	0.121766	0.666939
308	H	0.681261	0.215061	0.66402
309	H	0.789471	0.323732	0.666444
310	H	0.882729	0.370857	0.669564
311	H	0.78899	0.46701	0.66403
312	H	0.882283	0.513717	0.666956
313	H	0.680318	0.466548	0.666461
314	H	0.63319	0.512679	0.669571
315	H	0.49033	0.369374	0.666932
316	H	0.537039	0.322787	0.664016
317	C	0.529452	0.472968	0.672056
318	C	0.527226	0.499045	0.96666
319	C	0.499822	0.526431	0.966683
320	C	0.473762	0.52862	0.672106
321	C	0.476066	0.503346	0.712122
322	H	0.498585	0.544322	0.937696
323	H	0.545099	0.497831	0.937649
324	C	0.504197	0.475235	0.712095
325	C	0.45044	0.506902	0.754278
326	H	0.431195	0.530073	0.751358
327	H	0.47961	0.525083	0.780676
328	H	0.420732	0.46777	0.764972
329	C	0.5078	0.449596	0.754227
330	H	0.530993	0.430377	0.751268
331	H	0.468684	0.419869	0.764932
332	H	0.52599	0.478756	0.780629
333	C	0.531084	0.057294	0.672056
334	C	0.505008	0.028993	0.96666
335	C	0.477623	0.974206	0.96668
336	C	0.475428	0.945951	0.672102
337	C	0.500703	0.973528	0.712118
338	H	0.459733	0.955081	0.937689
339	H	0.506223	0.048085	0.937653
340	C	0.528813	0.029768	0.712095
341	C	0.497145	0.944341	0.754274
342	H	0.473971	0.901923	0.751351
343	H	0.478962	0.955327	0.780669
344	H	0.536277	0.953765	0.764965
345	C	0.554449	0.059005	0.754227
346	H	0.573671	0.101418	0.751275
347	H	0.584176	0.049615	0.764935
348	H	0.525287	0.048033	0.780633
349	C	0.946756	0.474597	0.672056
350	C	0.975053	0.476818	0.96666
351	C	0.058097	0.530285	0.672099
352	H	0.955963	0.458942	0.937653
353	C	0.974283	0.499856	0.712095
354	C	0.05971	0.553613	0.754271
355	H	0.102127	0.572852	0.751348
356	H	0.050292	0.583325	0.764962
357	C	0.945047	0.49626	0.754227
358	H	0.902633	0.473077	0.751271
359	H	0.954442	0.535381	0.764932
360	H	0.956016	0.478071	0.780629
