data_C198H144N18O18_2018-02-15_10:41:37
#******************************************
#
# CIF file created by Zeo++
# Zeo++ is an open source package to
# analyze microporous materials
#
#*******************************************

_cell_length_a		29.9453   
_cell_length_b		29.9452   
_cell_length_c		29.7826   
_cell_angle_alpha		90   
_cell_angle_beta		90   
_cell_angle_gamma		120   

_symmetry_space_group_name_H-M		'P1'
_symmetry_Int_Tables_number		1
_symmetry_cell_setting		Monoclinic

loop_
_symmetry_equiv_pos_as_xyz
'+x,+y,+z'

loop_
_atom_site_label
_atom_site_type_symbol
_atom_site_fract_x
_atom_site_fract_y
_atom_site_fract_z
1	C	0.029973	0.504208	0.295379
2	C	0.060851	0.529859	0.333396
3	N	0.034332	0.52753	0.038019
4	O	0.050047	0.50358	0.254314
5	C	0.029973	0.504208	0.628713
6	C	0.060851	0.529859	0.666729
7	N	0.034332	0.52753	0.371351
8	O	0.050047	0.50358	0.587646
9	C	0.029973	0.504208	0.962046
10	C	0.060851	0.529859	6.2e-05
11	N	0.034332	0.52753	0.704684
12	O	0.050047	0.50358	0.920978
13	C	0.055574	0.54425	0.225083
14	H	0.071871	0.540791	0.193425
15	C	0.055574	0.54425	0.558417
16	H	0.071871	0.540791	0.526758
17	C	0.055574	0.54425	0.89175
18	H	0.071871	0.540791	0.86009
19	H	0.018346	0.54118	0.217985
20	H	0.018346	0.54118	0.551319
21	H	0.018346	0.54118	0.884652
22	H	0.081804	0.582224	0.2393
23	H	0.081804	0.582224	0.572634
24	H	0.081804	0.582224	0.905966
25	C	0.11642	0.557619	0.001045
26	C	0.11642	0.557619	0.33438
27	C	0.11642	0.557619	0.667713
28	C	0.284189	0.642324	0.006528
29	C	0.313127	0.616523	0.007664
30	C	0.36785	0.643092	0.008919
31	C	0.393521	0.697793	0.00935
32	C	0.367033	0.725996	0.007883
33	C	0.312344	0.697088	0.006603
34	C	0.396384	0.61581	0.008506
35	C	0.380077	0.569538	0.03297
36	C	0.407685	0.542657	0.031537
37	C	0.45271	0.560156	0.005024
38	C	0.469667	0.607007	0.981416
39	C	0.442197	0.63391	0.982954
40	C	0.228427	0.614117	0.004693
41	C	0.200893	0.56911	0.978126
42	C	0.146473	0.541631	0.976383
43	C	0.143896	0.602133	0.028185
44	C	0.198335	0.629788	0.029733
45	C	0.394769	0.781763	0.00689
46	C	0.378041	0.811215	0.03157
47	C	0.405495	0.865697	0.030675
48	C	0.450705	0.893723	0.004474
49	C	0.467683	0.864301	0.980134
50	C	0.440451	0.809892	0.981259
51	H	0.129018	0.508739	0.95752
52	H	0.220374	0.55603	0.959007
53	H	0.124361	0.61549	0.046919
54	H	0.215894	0.661327	0.050294
55	H	0.345894	0.793149	0.051377
56	H	0.391482	0.884862	0.049104
57	H	0.454262	0.790867	0.962402
58	H	0.50107	0.88222	0.961945
59	H	0.455756	0.66676	0.964155
60	H	0.502958	0.622743	0.963073
61	H	0.393728	0.509187	0.049522
62	H	0.347884	0.555039	0.052749
63	H	0.293723	0.577092	0.007266
64	H	0.292471	0.716541	0.003824
65	H	0.432857	0.717802	0.011934
66	C	0.727864	0.365315	8e-06
67	C	0.699269	0.391415	0.998443
68	C	0.644553	0.365349	0.999333
69	C	0.618409	0.310677	0.001257
70	C	0.644589	0.282136	0.002459
71	C	0.69933	0.310625	0.001844
72	C	0.616717	0.393324	0.999397
73	C	0.63463	0.439616	0.024276
74	C	0.60704	0.466412	0.025602
75	C	0.560223	0.448196	0.001915
76	C	0.542434	0.402733	0.976246
77	C	0.569878	0.375698	0.975386
78	C	0.783646	0.393386	0.000663
79	C	0.811728	0.439358	0.02594
80	C	0.866139	0.466639	0.027112
81	C	0.895625	0.449472	0.003124
82	C	0.867659	0.404079	0.977135
83	C	0.813177	0.376556	0.976229
84	C	0.616639	0.226417	0.004607
85	C	0.632062	0.196339	0.979264
86	C	0.604261	0.141904	0.980671
87	C	0.55987	0.114448	0.007963
88	C	0.544259	0.144511	0.033071
89	C	0.57188	0.198925	0.031476
90	H	0.884024	0.500152	0.045134
91	H	0.792661	0.453259	0.044629
92	H	0.886868	0.389908	0.958977
93	H	0.795155	0.344192	0.956674
94	H	0.663374	0.213892	0.95845
95	H	0.617339	0.12235	0.96162
96	H	0.558983	0.218427	0.050782
97	H	0.511449	0.127092	0.052039
98	H	0.555497	0.343088	0.95617
99	H	0.508785	0.388454	0.958457
100	H	0.621797	0.499786	0.043811
101	H	0.667722	0.453918	0.042828
102	H	0.71897	0.430712	0.995438
103	H	0.719038	0.291006	0.004638
104	H	0.578984	0.290988	0.002016
105	C	0.532486	0.475381	0.003399
106	N	0.52925	0.499408	0.299189
107	C	0.504261	0.526882	0.297112
108	C	0.479957	0.53191	0.336257
109	N	0.482272	0.506387	0.040027
110	C	0.507806	0.479379	0.042435
111	O	0.50405	0.451859	0.080339
112	O	0.503893	0.548229	0.256633
113	C	0.53285	0.483031	0.117936
114	H	0.52739	0.4574	0.145993
115	H	0.519222	0.509171	0.128214
116	H	0.574048	0.505277	0.110499
117	C	0.461362	0.514234	0.228453
118	H	0.464165	0.53444	0.197206
119	H	0.424361	0.503726	0.244149
120	H	0.462621	0.479318	0.22031
121	C	0.531823	0.058887	0.008611
122	N	0.529287	0.032643	0.303748
123	C	0.504021	0.980353	0.299439
124	C	0.478313	0.949246	0.337301
125	N	0.480765	0.975428	0.04218
126	C	0.506032	0.027749	0.046461
127	O	0.505471	0.047491	0.087709
128	O	0.504733	0.960579	0.258243
129	C	0.546169	0.052777	0.116772
130	H	0.542712	0.068763	0.148607
131	H	0.584096	0.079113	0.102623
132	H	0.543104	0.015449	0.123535
133	C	0.464113	0.955227	0.229047
134	H	0.467692	0.939228	0.197264
135	H	0.467152	0.992518	0.222208
136	H	0.426143	0.928863	0.243129
137	C	0.951155	0.476927	0.003936
138	N	0.977614	0.479198	0.299293
139	C	0.982	0.502543	0.041954
140	O	0.961899	0.503364	0.08296
141	C	0.956004	0.462621	0.112269
142	H	0.939754	0.46628	0.143878
143	H	0.993147	0.465436	0.119468
144	H	0.929646	0.424724	0.098096
145	C	0.284189	0.642324	0.33986
146	C	0.313127	0.616523	0.340998
147	C	0.36785	0.643092	0.342251
148	C	0.393521	0.697793	0.342684
149	C	0.367033	0.725996	0.341216
150	C	0.312344	0.697088	0.339937
151	C	0.396384	0.61581	0.341838
152	C	0.380077	0.569538	0.366302
153	C	0.407685	0.542657	0.364871
154	C	0.45271	0.560156	0.338356
155	C	0.469667	0.607007	0.31475
156	C	0.442197	0.63391	0.31629
157	C	0.228427	0.614117	0.338027
158	C	0.200893	0.56911	0.311459
159	C	0.146473	0.541631	0.309718
160	C	0.143896	0.602133	0.361517
161	C	0.198335	0.629788	0.363065
162	C	0.394769	0.781763	0.340223
163	C	0.378041	0.811215	0.364901
164	C	0.405495	0.865697	0.364008
165	C	0.450705	0.893723	0.337805
166	C	0.467683	0.864301	0.313469
167	C	0.440451	0.809892	0.314594
168	H	0.129018	0.508739	0.290855
169	H	0.220374	0.55603	0.292342
170	H	0.124361	0.61549	0.380253
171	H	0.215894	0.661327	0.383627
172	H	0.345894	0.793149	0.384712
173	H	0.391482	0.884862	0.382438
174	H	0.454262	0.790867	0.295736
175	H	0.50107	0.88222	0.295279
176	H	0.455756	0.66676	0.29749
177	H	0.502958	0.622743	0.296408
178	H	0.393728	0.509187	0.382855
179	H	0.347884	0.555039	0.386082
180	H	0.293723	0.577092	0.340599
181	H	0.292471	0.716541	0.337157
182	H	0.432857	0.717802	0.345266
183	C	0.727864	0.365315	0.333341
184	C	0.699269	0.391415	0.331778
185	C	0.644553	0.365349	0.332667
186	C	0.618409	0.310677	0.334592
187	C	0.644589	0.282136	0.335794
188	C	0.69933	0.310625	0.33518
189	C	0.616717	0.393324	0.332729
190	C	0.63463	0.439616	0.357609
191	C	0.60704	0.466412	0.358935
192	C	0.560223	0.448196	0.335249
193	C	0.542434	0.402733	0.309581
194	C	0.569878	0.375698	0.30872
195	C	0.783646	0.393386	0.333997
196	C	0.811728	0.439358	0.359274
197	C	0.866139	0.466639	0.360446
198	C	0.895625	0.449472	0.336459
199	C	0.867659	0.404079	0.310468
200	C	0.813177	0.376556	0.309561
201	C	0.616639	0.226417	0.337939
202	C	0.632062	0.196339	0.312597
203	C	0.604261	0.141904	0.314005
204	C	0.55987	0.114448	0.341297
205	C	0.544259	0.144511	0.366406
206	C	0.57188	0.198925	0.364811
207	H	0.884024	0.500152	0.378466
208	H	0.792661	0.453259	0.377963
209	H	0.886868	0.389908	0.292312
210	H	0.795155	0.344192	0.290008
211	H	0.663374	0.213892	0.291784
212	H	0.617339	0.12235	0.294953
213	H	0.558983	0.218427	0.384114
214	H	0.511449	0.127092	0.385373
215	H	0.555497	0.343088	0.289503
216	H	0.508785	0.388454	0.291792
217	H	0.621797	0.499786	0.377143
218	H	0.667722	0.453918	0.376163
219	H	0.71897	0.430712	0.328772
220	H	0.719038	0.291006	0.337973
221	H	0.578984	0.290988	0.335351
222	C	0.532486	0.475381	0.336734
223	N	0.52925	0.499408	0.632521
224	C	0.504261	0.526882	0.630446
225	C	0.479957	0.53191	0.66959
226	N	0.482272	0.506387	0.373359
227	C	0.507806	0.479379	0.375767
228	O	0.50405	0.451859	0.413672
229	O	0.503893	0.548229	0.589966
230	C	0.53285	0.483031	0.451271
231	H	0.52739	0.4574	0.479327
232	H	0.519222	0.509171	0.461549
233	H	0.574048	0.505277	0.443833
234	C	0.461362	0.514234	0.561785
235	H	0.464165	0.53444	0.530539
236	H	0.424361	0.503726	0.577482
237	H	0.462621	0.479318	0.553643
238	C	0.531823	0.058887	0.341945
239	N	0.529287	0.032643	0.637081
240	C	0.504021	0.980353	0.632773
241	C	0.478313	0.949246	0.670637
242	N	0.480765	0.975428	0.375512
243	C	0.506032	0.027749	0.379796
244	O	0.505471	0.047491	0.421042
245	O	0.504733	0.960579	0.591574
246	C	0.546169	0.052777	0.450106
247	H	0.542712	0.068763	0.48194
248	H	0.584096	0.079113	0.435956
249	H	0.543104	0.015449	0.456868
250	C	0.464113	0.955227	0.562379
251	H	0.467692	0.939228	0.530599
252	H	0.467152	0.992518	0.55554
253	H	0.426143	0.928863	0.576461
254	C	0.951155	0.476927	0.337268
255	N	0.977614	0.479198	0.632625
256	C	0.982	0.502543	0.375287
257	O	0.961899	0.503364	0.416294
258	C	0.956004	0.462621	0.445603
259	H	0.939754	0.46628	0.477212
260	H	0.993147	0.465436	0.452802
261	H	0.929646	0.424724	0.43143
262	C	0.284189	0.642324	0.673192
263	C	0.313127	0.616523	0.674331
264	C	0.36785	0.643092	0.675583
265	C	0.393521	0.697793	0.676016
266	C	0.367033	0.725996	0.674549
267	C	0.312344	0.697088	0.67327
268	C	0.396384	0.61581	0.67517
269	C	0.380077	0.569538	0.699637
270	C	0.407685	0.542657	0.698204
271	C	0.45271	0.560156	0.671692
272	C	0.469667	0.607007	0.648084
273	C	0.442197	0.63391	0.649622
274	C	0.228427	0.614117	0.671359
275	C	0.200893	0.56911	0.644793
276	C	0.146473	0.541631	0.643051
277	C	0.143896	0.602133	0.694849
278	C	0.198335	0.629788	0.696401
279	C	0.394769	0.781763	0.673555
280	C	0.378041	0.811215	0.698237
281	C	0.405495	0.865697	0.697341
282	C	0.450705	0.893723	0.671141
283	C	0.467683	0.864301	0.646801
284	C	0.440451	0.809892	0.647926
285	H	0.129018	0.508739	0.624187
286	H	0.220374	0.55603	0.625675
287	H	0.124361	0.61549	0.713585
288	H	0.215894	0.661327	0.71696
289	H	0.345894	0.793149	0.718044
290	H	0.391482	0.884862	0.715771
291	H	0.454262	0.790867	0.629069
292	H	0.50107	0.88222	0.628613
293	H	0.455756	0.66676	0.630822
294	H	0.502958	0.622743	0.629741
295	H	0.393728	0.509187	0.716187
296	H	0.347884	0.555039	0.719414
297	H	0.293723	0.577092	0.673931
298	H	0.292471	0.716541	0.67049
299	H	0.432857	0.717802	0.678598
300	C	0.727864	0.365315	0.666675
301	C	0.699269	0.391415	0.665111
302	C	0.644553	0.365349	0.666
303	C	0.618409	0.310677	0.667924
304	C	0.644589	0.282136	0.669126
305	C	0.69933	0.310625	0.668512
306	C	0.616717	0.393324	0.666061
307	C	0.63463	0.439616	0.690941
308	C	0.60704	0.466412	0.692267
309	C	0.560223	0.448196	0.668582
310	C	0.542434	0.402733	0.642913
311	C	0.569878	0.375698	0.642053
312	C	0.783646	0.393386	0.66733
313	C	0.811728	0.439358	0.692606
314	C	0.866139	0.466639	0.693778
315	C	0.895625	0.449472	0.669791
316	C	0.867659	0.404079	0.643803
317	C	0.813177	0.376556	0.642893
318	C	0.616639	0.226417	0.671272
319	C	0.632062	0.196339	0.645928
320	C	0.604261	0.141904	0.647338
321	C	0.55987	0.114448	0.67463
322	C	0.544259	0.144511	0.699738
323	C	0.57188	0.198925	0.698143
324	H	0.884024	0.500152	0.711799
325	H	0.792661	0.453259	0.711295
326	H	0.886868	0.389908	0.625645
327	H	0.795155	0.344192	0.623341
328	H	0.663374	0.213892	0.625117
329	H	0.617339	0.12235	0.628287
330	H	0.558983	0.218427	0.71745
331	H	0.511449	0.127092	0.718706
332	H	0.555497	0.343088	0.622834
333	H	0.508785	0.388454	0.625124
334	H	0.621797	0.499786	0.710476
335	H	0.667722	0.453918	0.709496
336	H	0.71897	0.430712	0.662105
337	H	0.719038	0.291006	0.671305
338	H	0.578984	0.290988	0.668683
339	C	0.532486	0.475381	0.670066
340	N	0.52925	0.499408	0.965854
341	C	0.504261	0.526882	0.963779
342	C	0.479957	0.53191	0.002922
343	N	0.482272	0.506387	0.706692
344	C	0.507806	0.479379	0.709099
345	O	0.50405	0.451859	0.747004
346	O	0.503893	0.548229	0.923298
347	C	0.53285	0.483031	0.784603
348	H	0.52739	0.4574	0.81266
349	H	0.519222	0.509171	0.794881
350	H	0.574048	0.505277	0.777166
351	C	0.461362	0.514234	0.895121
352	H	0.464165	0.53444	0.863871
353	H	0.424361	0.503726	0.910815
354	H	0.462621	0.479318	0.886975
355	C	0.531823	0.058887	0.675278
356	N	0.529287	0.032643	0.970413
357	C	0.504021	0.980353	0.966105
358	C	0.478313	0.949246	0.00397
359	N	0.480765	0.975428	0.708844
360	C	0.506032	0.027749	0.713129
361	O	0.505471	0.047491	0.754374
362	O	0.504733	0.960579	0.92491
363	C	0.546169	0.052777	0.783438
364	H	0.542712	0.068763	0.815272
365	H	0.584096	0.079113	0.769289
366	H	0.543104	0.015449	0.7902
367	C	0.464113	0.955227	0.895712
368	H	0.467692	0.939228	0.863932
369	H	0.467152	0.992518	0.888876
370	H	0.426143	0.928863	0.909794
371	C	0.951155	0.476927	0.6706
372	N	0.977614	0.479198	0.965958
373	C	0.982	0.502543	0.708619
374	O	0.961899	0.503364	0.749626
375	C	0.956004	0.462621	0.778936
376	H	0.939754	0.46628	0.810545
377	H	0.993147	0.465436	0.786134
378	H	0.929646	0.424724	0.764763
