data_C189H126N18_2018-02-15_10:41:40
#******************************************
#
# CIF file created by Zeo++
# Zeo++ is an open source package to
# analyze microporous materials
#
#*******************************************

_cell_length_a		29.7809   
_cell_length_b		29.781   
_cell_length_c		29.6604   
_cell_angle_alpha		90   
_cell_angle_beta		90   
_cell_angle_gamma		120   

_symmetry_space_group_name_H-M		'P1'
_symmetry_Int_Tables_number		1
_symmetry_cell_setting		Monoclinic

loop_
_symmetry_equiv_pos_as_xyz
'+x,+y,+z'

loop_
_atom_site_label
_atom_site_type_symbol
_atom_site_fract_x
_atom_site_fract_y
_atom_site_fract_z
1	C	0.031839	0.527248	0.047828
2	C	0.062039	0.533068	0.008627
3	C	0.033596	0.509824	0.302094
4	H	0.052028	0.512577	0.272285
5	C	0.052177	0.544231	0.09404
6	H	0.029222	0.513468	0.118167
7	H	0.049513	0.578409	0.102836
8	C	0.031839	0.527248	0.381161
9	C	0.062039	0.533068	0.341961
10	C	0.033596	0.509824	0.635429
11	H	0.052028	0.512577	0.605618
12	C	0.052177	0.544231	0.427374
13	H	0.029222	0.513468	0.451501
14	H	0.049513	0.578409	0.43617
15	C	0.031839	0.527248	0.714494
16	C	0.062039	0.533068	0.675294
17	C	0.033596	0.509824	0.968762
18	H	0.052028	0.512577	0.938951
19	C	0.052177	0.544231	0.760707
20	H	0.029222	0.513468	0.784834
21	H	0.049513	0.578409	0.769503
22	C	0.145574	0.540447	0.985279
23	C	0.117679	0.561113	0.00718
24	C	0.146885	0.611208	0.026123
25	H	0.126313	0.504547	0.970647
26	H	0.128572	0.628578	0.041164
27	H	0.092246	0.553308	0.097656
28	C	0.145574	0.540447	0.31861
29	C	0.117679	0.561113	0.340514
30	C	0.146885	0.611208	0.359455
31	H	0.126313	0.504547	0.303981
32	H	0.128572	0.628578	0.374499
33	H	0.092246	0.553308	0.430988
34	C	0.145574	0.540447	0.651943
35	C	0.117679	0.561113	0.673847
36	C	0.146885	0.611208	0.692792
37	H	0.126313	0.504547	0.637314
38	H	0.128572	0.628578	0.707832
39	H	0.092246	0.553308	0.764325
40	C	0.286037	0.64501	0.003441
41	C	0.31436	0.618334	0.003441
42	C	0.369315	0.643874	0.003462
43	C	0.395991	0.69887	0.003428
44	C	0.370452	0.728283	0.003428
45	C	0.315455	0.699963	0.003401
46	C	0.39689	0.615302	0.004062
47	C	0.376317	0.566339	0.0256
48	C	0.403159	0.53857	0.026207
49	C	0.453213	0.559422	0.00719
50	C	0.473837	0.607939	0.985218
51	C	0.44613	0.634805	0.983273
52	C	0.229888	0.617434	0.004041
53	C	0.200144	0.56815	0.983327
54	C	0.201494	0.638046	0.025513
55	C	0.399021	0.784426	0.004025
56	C	0.379536	0.814161	0.983209
57	C	0.406389	0.868735	0.985168
58	C	0.454881	0.896624	0.007178
59	C	0.475729	0.867428	0.026211
60	C	0.447974	0.812816	0.025583
61	H	0.217801	0.551621	0.965937
62	H	0.220175	0.672861	0.041878
63	H	0.345385	0.796496	0.965765
64	H	0.389791	0.887993	0.970465
65	H	0.464049	0.794131	0.042035
66	H	0.511361	0.885744	0.041344
67	H	0.462622	0.66896	0.965839
68	H	0.5097	0.624542	0.970525
69	H	0.38582	0.502914	0.041299
70	H	0.341531	0.550237	0.042013
71	H	0.294205	0.578805	0.00359
72	H	0.296089	0.720125	0.003516
73	H	0.435521	0.718241	0.003569
74	C	0.730576	0.367248	0.003839
75	C	0.701917	0.393446	0.003826
76	C	0.647043	0.366154	0.003822
77	C	0.620843	0.311296	0.003829
78	C	0.648136	0.283716	0.003843
79	C	0.702994	0.312373	0.003853
80	C	0.618823	0.393299	0.004099
81	C	0.628868	0.432192	0.97183
82	C	0.600741	0.458682	0.971965
83	C	0.562402	0.448229	0.005033
84	C	0.552854	0.409622	0.037563
85	C	0.580072	0.382234	0.036793
86	C	0.785943	0.395466	0.004122
87	C	0.813628	0.434263	0.036781
88	C	0.868235	0.46147	0.037563
89	C	0.897296	0.451885	0.005063
90	C	0.869412	0.413496	0.972033
91	C	0.814791	0.385374	0.971891
92	C	0.620991	0.228353	0.004129
93	C	0.632035	0.200669	0.036837
94	C	0.604643	0.146061	0.03761
95	C	0.566059	0.117004	0.005063
96	C	0.555636	0.144888	0.971972
97	C	0.58212	0.199506	0.971844
98	H	0.886559	0.489072	0.061918
99	H	0.794186	0.4423	0.061009
100	H	0.888608	0.404745	0.948129
101	H	0.796197	0.357918	0.947464
102	H	0.659458	0.22011	0.061105
103	H	0.613843	0.127733	0.062021
104	H	0.573305	0.218102	0.94738
105	H	0.527717	0.12569	0.948044
106	H	0.572072	0.354791	0.061046
107	H	0.525303	0.400398	0.061957
108	H	0.609465	0.486606	0.948041
109	H	0.656294	0.441021	0.94738
110	H	0.721385	0.433169	0.003913
111	H	0.723244	0.292902	0.003961
112	H	0.58112	0.291044	0.00392
113	C	0.487138	0.507501	0.047831
114	C	0.481239	0.531808	0.008616
115	C	0.504384	0.526519	0.302057
116	N	0.530023	0.499588	0.301848
117	C	0.534789	0.475913	0.005859
118	N	0.513085	0.480798	0.044492
119	H	0.501575	0.542149	0.272239
120	C	0.470391	0.511064	0.094086
121	H	0.46118	0.541967	0.097648
122	H	0.50134	0.519133	0.118087
123	H	0.436354	0.474211	0.103102
124	C	0.50673	0.982456	0.047856
125	C	0.48248	0.952263	0.008622
126	C	0.487808	0.980707	0.30206
127	N	0.514748	0.033274	0.301858
128	C	0.53837	0.061707	0.005887
129	N	0.533436	0.035109	0.044525
130	H	0.472252	0.962275	0.272224
131	C	0.503121	0.962139	0.094113
132	H	0.472249	0.922009	0.097648
133	H	0.494975	0.98498	0.118093
134	H	0.539982	0.965	0.103181
135	N	0.98103	0.484179	0.301892
136	C	0.952591	0.479495	0.005886
137	N	0.979193	0.501309	0.044491
138	C	0.286037	0.64501	0.336774
139	C	0.31436	0.618334	0.336773
140	C	0.369315	0.643874	0.336793
141	C	0.395991	0.69887	0.336762
142	C	0.370452	0.728283	0.336761
143	C	0.315455	0.699963	0.336734
144	C	0.39689	0.615302	0.337396
145	C	0.376317	0.566339	0.358933
146	C	0.403159	0.53857	0.35954
147	C	0.453213	0.559422	0.340524
148	C	0.473837	0.607939	0.318551
149	C	0.44613	0.634805	0.316606
150	C	0.229888	0.617434	0.337372
151	C	0.200144	0.56815	0.316659
152	C	0.201494	0.638046	0.358845
153	C	0.399021	0.784426	0.337359
154	C	0.379536	0.814161	0.316542
155	C	0.406389	0.868735	0.318501
156	C	0.454881	0.896624	0.340511
157	C	0.475729	0.867428	0.359546
158	C	0.447974	0.812816	0.358916
159	H	0.217801	0.551621	0.29927
160	H	0.220175	0.672861	0.37521
161	H	0.345385	0.796496	0.299099
162	H	0.389791	0.887993	0.303798
163	H	0.464049	0.794131	0.375369
164	H	0.511361	0.885744	0.374678
165	H	0.462622	0.66896	0.299172
166	H	0.5097	0.624542	0.303857
167	H	0.38582	0.502914	0.374634
168	H	0.341531	0.550237	0.375345
169	H	0.294205	0.578805	0.336921
170	H	0.296089	0.720125	0.336849
171	H	0.435521	0.718241	0.336901
172	C	0.730576	0.367248	0.337173
173	C	0.701917	0.393446	0.337156
174	C	0.647043	0.366154	0.337156
175	C	0.620843	0.311296	0.337163
176	C	0.648136	0.283716	0.337177
177	C	0.702994	0.312373	0.337183
178	C	0.618823	0.393299	0.337433
179	C	0.628868	0.432192	0.305162
180	C	0.600741	0.458682	0.305299
181	C	0.562402	0.448229	0.338367
182	C	0.552854	0.409622	0.370898
183	C	0.580072	0.382234	0.370126
184	C	0.785943	0.395466	0.337456
185	C	0.813628	0.434263	0.370116
186	C	0.868235	0.46147	0.370898
187	C	0.897296	0.451885	0.338394
188	C	0.869412	0.413496	0.305366
189	C	0.814791	0.385374	0.305225
190	C	0.620991	0.228353	0.33746
191	C	0.632035	0.200669	0.37017
192	C	0.604643	0.146061	0.370942
193	C	0.566059	0.117004	0.338394
194	C	0.555636	0.144888	0.305304
195	C	0.58212	0.199506	0.305175
196	H	0.886559	0.489072	0.395251
197	H	0.794186	0.4423	0.394344
198	H	0.888608	0.404745	0.28146
199	H	0.796197	0.357918	0.280797
200	H	0.659458	0.22011	0.394438
201	H	0.613843	0.127733	0.395355
202	H	0.573305	0.218102	0.280712
203	H	0.527717	0.12569	0.281376
204	H	0.572072	0.354791	0.394381
205	H	0.525303	0.400398	0.395291
206	H	0.609465	0.486606	0.281373
207	H	0.656294	0.441021	0.280713
208	H	0.721385	0.433169	0.337244
209	H	0.723244	0.292902	0.337291
210	H	0.58112	0.291044	0.337254
211	C	0.487138	0.507501	0.381164
212	C	0.481239	0.531808	0.341951
213	C	0.504384	0.526519	0.635392
214	N	0.530023	0.499588	0.635183
215	C	0.534789	0.475913	0.339193
216	N	0.513085	0.480798	0.377827
217	H	0.501575	0.542149	0.605575
218	C	0.470391	0.511064	0.427418
219	H	0.46118	0.541967	0.430982
220	H	0.50134	0.519133	0.45142
221	H	0.436354	0.474211	0.436437
222	C	0.50673	0.982456	0.381191
223	C	0.48248	0.952263	0.341957
224	C	0.487808	0.980707	0.635395
225	N	0.514748	0.033274	0.635193
226	C	0.53837	0.061707	0.33922
227	N	0.533436	0.035109	0.377857
228	H	0.472252	0.962275	0.605558
229	C	0.503121	0.962139	0.427448
230	H	0.472249	0.922009	0.430982
231	H	0.494975	0.98498	0.451426
232	H	0.539982	0.965	0.436514
233	N	0.98103	0.484179	0.635227
234	C	0.952591	0.479495	0.33922
235	N	0.979193	0.501309	0.377823
236	C	0.286037	0.64501	0.670108
237	C	0.31436	0.618334	0.670108
238	C	0.369315	0.643874	0.670125
239	C	0.395991	0.69887	0.670095
240	C	0.370452	0.728283	0.670095
241	C	0.315455	0.699963	0.670068
242	C	0.39689	0.615302	0.670729
243	C	0.376317	0.566339	0.692266
244	C	0.403159	0.53857	0.692873
245	C	0.453213	0.559422	0.673857
246	C	0.473837	0.607939	0.651885
247	C	0.44613	0.634805	0.64994
248	C	0.229888	0.617434	0.670708
249	C	0.200144	0.56815	0.649994
250	C	0.201494	0.638046	0.692182
251	C	0.399021	0.784426	0.670692
252	C	0.379536	0.814161	0.649876
253	C	0.406389	0.868735	0.651835
254	C	0.454881	0.896624	0.673847
255	C	0.475729	0.867428	0.692879
256	C	0.447974	0.812816	0.692249
257	H	0.217801	0.551621	0.632604
258	H	0.220175	0.672861	0.708547
259	H	0.345385	0.796496	0.632432
260	H	0.389791	0.887993	0.637132
261	H	0.464049	0.794131	0.708702
262	H	0.511361	0.885744	0.708011
263	H	0.462622	0.66896	0.632506
264	H	0.5097	0.624542	0.637192
265	H	0.38582	0.502914	0.707967
266	H	0.341531	0.550237	0.708682
267	H	0.294205	0.578805	0.670253
268	H	0.296089	0.720125	0.670183
269	H	0.435521	0.718241	0.670236
270	C	0.730576	0.367248	0.670506
271	C	0.701917	0.393446	0.670493
272	C	0.647043	0.366154	0.670489
273	C	0.620843	0.311296	0.670496
274	C	0.648136	0.283716	0.67051
275	C	0.702994	0.312373	0.67052
276	C	0.618823	0.393299	0.670766
277	C	0.628868	0.432192	0.638497
278	C	0.600741	0.458682	0.638632
279	C	0.562402	0.448229	0.6717
280	C	0.552854	0.409622	0.704231
281	C	0.580072	0.382234	0.703459
282	C	0.785943	0.395466	0.670789
283	C	0.813628	0.434263	0.703449
284	C	0.868235	0.46147	0.704231
285	C	0.897296	0.451885	0.671727
286	C	0.869412	0.413496	0.638699
287	C	0.814791	0.385374	0.638558
288	C	0.620991	0.228353	0.670793
289	C	0.632035	0.200669	0.703503
290	C	0.604643	0.146061	0.704278
291	C	0.566059	0.117004	0.671727
292	C	0.555636	0.144888	0.638639
293	C	0.58212	0.199506	0.638511
294	H	0.886559	0.489072	0.728584
295	H	0.794186	0.4423	0.727677
296	H	0.888608	0.404745	0.614792
297	H	0.796197	0.357918	0.614131
298	H	0.659458	0.22011	0.727771
299	H	0.613843	0.127733	0.728688
300	H	0.573305	0.218102	0.614047
301	H	0.527717	0.12569	0.614708
302	H	0.572072	0.354791	0.727714
303	H	0.525303	0.400398	0.728624
304	H	0.609465	0.486606	0.614708
305	H	0.656294	0.441021	0.614047
306	H	0.721385	0.433169	0.67058
307	H	0.723244	0.292902	0.670628
308	H	0.58112	0.291044	0.670587
309	C	0.487138	0.507501	0.714497
310	C	0.481239	0.531808	0.675284
311	C	0.504384	0.526519	0.968725
312	N	0.530023	0.499588	0.968516
313	C	0.534789	0.475913	0.672526
314	N	0.513085	0.480798	0.71116
315	H	0.501575	0.542149	0.938908
316	C	0.470391	0.511064	0.760754
317	H	0.46118	0.541967	0.764315
318	H	0.50134	0.519133	0.784756
319	H	0.436354	0.474211	0.76977
320	C	0.50673	0.982456	0.714524
321	C	0.48248	0.952263	0.67529
322	C	0.487808	0.980707	0.968728
323	N	0.514748	0.033274	0.968526
324	C	0.53837	0.061707	0.672556
325	N	0.533436	0.035109	0.711193
326	H	0.472252	0.962275	0.938891
327	C	0.503121	0.962139	0.760781
328	H	0.472249	0.922009	0.764315
329	H	0.494975	0.98498	0.784759
330	H	0.539982	0.965	0.769847
331	N	0.98103	0.484179	0.96856
332	C	0.952591	0.479495	0.672553
333	N	0.979193	0.501309	0.71116
