data_C162H99N45_2018-02-15_10:42:33
#******************************************
#
# CIF file created by Zeo++
# Zeo++ is an open source package to
# analyze microporous materials
#
#*******************************************

_cell_length_a		29.3291   
_cell_length_b		29.3292   
_cell_length_c		29.866   
_cell_angle_alpha		90   
_cell_angle_beta		90   
_cell_angle_gamma		120   

_symmetry_space_group_name_H-M		'P1'
_symmetry_Int_Tables_number		1
_symmetry_cell_setting		Monoclinic

loop_
_symmetry_equiv_pos_as_xyz
'+x,+y,+z'

loop_
_atom_site_label
_atom_site_type_symbol
_atom_site_fract_x
_atom_site_fract_y
_atom_site_fract_z
1	C	0.03069	0.515902	0.048206
2	N	0.02963	0.515382	0.301462
3	H	0.0358	0.518453	0.116411
4	C	0.03069	0.515902	0.381538
5	N	0.02963	0.515382	0.634796
6	H	0.0358	0.518453	0.449743
7	C	0.03069	0.515902	0.714871
8	N	0.02963	0.515382	0.968129
9	H	0.0358	0.518453	0.783075
10	N	0.055594	0.528351	0.0885
11	N	0.055594	0.528351	0.421831
12	N	0.055594	0.528351	0.755164
13	C	0.058067	0.529595	0.006695
14	C	0.058067	0.529595	0.340029
15	C	0.058067	0.529595	0.673362
16	C	0.363894	0.723297	0.000165
17	N	0.389412	0.695266	0.000212
18	C	0.363894	0.641718	0.000165
19	N	0.310344	0.616198	0.000212
20	C	0.282315	0.641718	0.000165
21	N	0.310344	0.695266	0.000212
22	C	0.392008	0.613604	0.000628
23	C	0.447862	0.640462	0.00113
24	C	0.475651	0.612828	0.002433
25	C	0.44831	0.557308	0.003125
26	C	0.392788	0.529965	0.002435
27	C	0.365153	0.557753	0.001126
28	C	0.392008	0.779526	0.000621
29	C	0.447861	0.808523	0.00112
30	C	0.475649	0.863944	0.002421
31	C	0.448307	0.892126	0.003114
32	C	0.392785	0.863944	0.002428
33	C	0.365152	0.808523	0.001126
34	C	0.226086	0.613604	0.000624
35	C	0.197091	0.640462	0.001126
36	C	0.141667	0.612828	0.002415
37	C	0.113485	0.557304	0.003104
38	C	0.141667	0.529965	0.002422
39	C	0.19709	0.557753	0.00112
40	H	0.51594	0.883496	0.003407
41	H	0.469241	0.789652	0.000999
42	H	0.372045	0.883496	0.003402
43	H	0.3249	0.789648	0.000992
44	H	0.215961	0.680711	0.000992
45	H	0.122116	0.633568	0.003395
46	H	0.215959	0.536371	0.001003
47	H	0.122114	0.489673	0.003407
48	H	0.324902	0.536371	0.000999
49	H	0.372049	0.489673	0.003407
50	H	0.515944	0.633568	0.0034
51	H	0.46924	0.680711	0.000992
52	C	0.642843	0.281194	0.000427
53	N	0.617323	0.309222	0.00046
54	C	0.642842	0.36277	0.000427
55	N	0.696391	0.38829	0.00046
56	C	0.72442	0.36277	0.00043
57	N	0.696391	0.309222	0.00046
58	C	0.614729	0.390883	0.000741
59	C	0.558875	0.364027	0.001093
60	C	0.531081	0.391666	0.00204
61	C	0.558424	0.447189	0.00249
62	C	0.613944	0.474532	0.00203
63	C	0.641585	0.446736	0.001093
64	C	0.614729	0.224967	0.000741
65	C	0.558875	0.195969	0.001103
66	C	0.53108	0.140536	0.002044
67	C	0.558424	0.112358	0.002496
68	C	0.613947	0.140537	0.002044
69	C	0.641585	0.195969	0.001096
70	C	0.780646	0.390883	0.000741
71	C	0.809643	0.364027	0.001103
72	C	0.865077	0.391666	0.002051
73	C	0.893252	0.447185	0.00251
74	C	0.865077	0.474532	0.002034
75	C	0.809643	0.446736	0.001096
76	H	0.49078	0.120974	0.00276
77	H	0.537494	0.214839	0.001023
78	H	0.634686	0.120975	0.002766
79	H	0.681836	0.21484	0.001029
80	H	0.790773	0.323776	0.001026
81	H	0.884636	0.370926	0.002773
82	H	0.790773	0.468118	0.001023
83	H	0.884637	0.514831	0.002768
84	H	0.681834	0.468118	0.001023
85	H	0.634683	0.514831	0.002757
86	H	0.490779	0.370926	0.002765
87	H	0.537495	0.323777	0.001029
88	C	0.530737	0.474878	0.00523
89	C	0.517559	0.488047	0.046757
90	C	0.489708	0.515898	0.048211
91	C	0.476017	0.529595	0.006705
92	N	0.490235	0.515386	0.301467
93	N	0.515997	0.489618	0.30067
94	N	0.477262	0.528347	0.088509
95	H	0.487161	0.518445	0.116416
96	H	0.458181	0.54743	0.090762
97	H	0.528231	0.477374	0.075857
98	C	0.530736	0.056982	0.005232
99	C	0.51756	0.030629	0.046757
100	C	0.489709	0.974926	0.048207
101	C	0.476019	0.947543	0.006699
102	N	0.490237	0.975977	0.301463
103	N	0.516001	0.027504	0.30067
104	N	0.477258	0.950028	0.088504
105	H	0.487158	0.969827	0.116412
106	H	0.458178	0.911866	0.090753
107	H	0.528231	0.051972	0.075859
108	C	0.948629	0.474874	0.00524
109	C	0.97499	0.488051	0.046762
110	N	0.978102	0.489618	0.300675
111	H	0.093759	0.547438	0.090746
112	H	0.953649	0.477378	0.075866
113	C	0.363894	0.723297	0.333499
114	N	0.389412	0.695266	0.333545
115	C	0.363894	0.641718	0.333501
116	N	0.310344	0.616198	0.333546
117	C	0.282315	0.641718	0.333498
118	N	0.310344	0.695266	0.333545
119	C	0.392008	0.613604	0.333961
120	C	0.447862	0.640462	0.334463
121	C	0.475651	0.612828	0.335767
122	C	0.44831	0.557308	0.33646
123	C	0.392788	0.529965	0.335767
124	C	0.365153	0.557753	0.334459
125	C	0.392008	0.779526	0.333956
126	C	0.447861	0.808523	0.334453
127	C	0.475649	0.863944	0.335753
128	C	0.448307	0.892126	0.336447
129	C	0.392785	0.863944	0.33576
130	C	0.365152	0.808523	0.334461
131	C	0.226086	0.613604	0.333959
132	C	0.197091	0.640462	0.33446
133	C	0.141667	0.612828	0.335747
134	C	0.113485	0.557304	0.336437
135	C	0.141667	0.529965	0.335753
136	C	0.19709	0.557753	0.334454
137	H	0.51594	0.883496	0.336741
138	H	0.469241	0.789652	0.334334
139	H	0.372045	0.883496	0.336735
140	H	0.3249	0.789648	0.334328
141	H	0.215961	0.680711	0.334325
142	H	0.122116	0.633568	0.336728
143	H	0.215959	0.536371	0.334338
144	H	0.122114	0.489673	0.336741
145	H	0.324902	0.536371	0.334333
146	H	0.372049	0.489673	0.336741
147	H	0.515944	0.633568	0.336735
148	H	0.46924	0.680711	0.334325
149	C	0.642843	0.281194	0.333762
150	N	0.617323	0.309222	0.333795
151	C	0.642842	0.36277	0.333762
152	N	0.696391	0.38829	0.333794
153	C	0.72442	0.36277	0.333763
154	N	0.696391	0.309222	0.333795
155	C	0.614729	0.390883	0.334074
156	C	0.558875	0.364027	0.334429
157	C	0.531081	0.391666	0.335375
158	C	0.558424	0.447189	0.335824
159	C	0.613944	0.474532	0.335365
160	C	0.641585	0.446736	0.334428
161	C	0.614729	0.224967	0.334077
162	C	0.558875	0.195969	0.334438
163	C	0.53108	0.140536	0.335378
164	C	0.558424	0.112358	0.335827
165	C	0.613947	0.140537	0.335378
166	C	0.641585	0.195969	0.334432
167	C	0.780646	0.390883	0.334076
168	C	0.809643	0.364027	0.334438
169	C	0.865077	0.391666	0.335385
170	C	0.893252	0.447185	0.335844
171	C	0.865077	0.474532	0.335365
172	C	0.809643	0.446736	0.334429
173	H	0.49078	0.120974	0.336092
174	H	0.537494	0.214839	0.334356
175	H	0.634686	0.120975	0.336098
176	H	0.681836	0.21484	0.334363
177	H	0.790773	0.323776	0.334359
178	H	0.884636	0.370926	0.336105
179	H	0.790773	0.468118	0.334356
180	H	0.884637	0.514831	0.336102
181	H	0.681834	0.468118	0.334355
182	H	0.634683	0.514831	0.336088
183	H	0.490779	0.370926	0.336098
184	H	0.537495	0.323777	0.334363
185	C	0.530737	0.474878	0.338563
186	C	0.517559	0.488047	0.380088
187	C	0.489708	0.515898	0.381545
188	C	0.476017	0.529595	0.340036
189	N	0.490235	0.515386	0.6348
190	N	0.515997	0.489618	0.634003
191	N	0.477262	0.528347	0.421841
192	H	0.487161	0.518445	0.449749
193	H	0.458181	0.54743	0.424095
194	H	0.528231	0.477374	0.409188
195	C	0.530736	0.056982	0.338566
196	C	0.51756	0.030629	0.380088
197	C	0.489709	0.974926	0.381541
198	C	0.476019	0.947543	0.340033
199	N	0.490237	0.975977	0.634796
200	N	0.516001	0.027504	0.634003
201	N	0.477258	0.950028	0.421838
202	H	0.487158	0.969827	0.449746
203	H	0.458178	0.911866	0.424085
204	H	0.528231	0.051972	0.409192
205	C	0.948629	0.474874	0.338573
206	C	0.97499	0.488051	0.380095
207	N	0.978102	0.489618	0.634006
208	H	0.093759	0.547438	0.424078
209	H	0.953649	0.477378	0.409198
210	C	0.363894	0.723297	0.666833
211	N	0.389412	0.695266	0.66688
212	C	0.363894	0.641718	0.666833
213	N	0.310344	0.616198	0.66688
214	C	0.282315	0.641718	0.666833
215	N	0.310344	0.695266	0.666876
216	C	0.392008	0.613604	0.667295
217	C	0.447862	0.640462	0.667797
218	C	0.475651	0.612828	0.6691
219	C	0.44831	0.557308	0.669793
220	C	0.392788	0.529965	0.6691
221	C	0.365153	0.557753	0.667794
222	C	0.392008	0.779526	0.667288
223	C	0.447861	0.808523	0.667787
224	C	0.475649	0.863944	0.669086
225	C	0.448307	0.892126	0.669779
226	C	0.392785	0.863944	0.669093
227	C	0.365152	0.808523	0.667794
228	C	0.226086	0.613604	0.667291
229	C	0.197091	0.640462	0.667794
230	C	0.141667	0.612828	0.669083
231	C	0.113485	0.557304	0.669769
232	C	0.141667	0.529965	0.669086
233	C	0.19709	0.557753	0.667787
234	H	0.51594	0.883496	0.670074
235	H	0.469241	0.789652	0.667666
236	H	0.372045	0.883496	0.670067
237	H	0.3249	0.789648	0.66766
238	H	0.215961	0.680711	0.667656
239	H	0.122116	0.633568	0.670061
240	H	0.215959	0.536371	0.66767
241	H	0.122114	0.489673	0.670074
242	H	0.324902	0.536371	0.667666
243	H	0.372049	0.489673	0.670074
244	H	0.515944	0.633568	0.670067
245	H	0.46924	0.680711	0.66766
246	C	0.642843	0.281194	0.667094
247	N	0.617323	0.309222	0.667127
248	C	0.642842	0.36277	0.667094
249	N	0.696391	0.38829	0.667127
250	C	0.72442	0.36277	0.667097
251	N	0.696391	0.309222	0.667127
252	C	0.614729	0.390883	0.667409
253	C	0.558875	0.364027	0.66776
254	C	0.531081	0.391666	0.668708
255	C	0.558424	0.447189	0.669156
256	C	0.613944	0.474532	0.668698
257	C	0.641585	0.446736	0.66776
258	C	0.614729	0.224967	0.667409
259	C	0.558875	0.195969	0.66777
260	C	0.53108	0.140536	0.668711
261	C	0.558424	0.112358	0.66916
262	C	0.613947	0.140537	0.668711
263	C	0.641585	0.195969	0.667764
264	C	0.780646	0.390883	0.667409
265	C	0.809643	0.364027	0.66777
266	C	0.865077	0.391666	0.668718
267	C	0.893252	0.447185	0.669177
268	C	0.865077	0.474532	0.668701
269	C	0.809643	0.446736	0.667764
270	H	0.49078	0.120974	0.669424
271	H	0.537494	0.214839	0.66769
272	H	0.634686	0.120975	0.669431
273	H	0.681836	0.21484	0.667697
274	H	0.790773	0.323776	0.66769
275	H	0.884636	0.370926	0.669438
276	H	0.790773	0.468118	0.66769
277	H	0.884637	0.514831	0.669434
278	H	0.681834	0.468118	0.667687
279	H	0.634683	0.514831	0.669421
280	H	0.490779	0.370926	0.669431
281	H	0.537495	0.323777	0.667697
282	C	0.530737	0.474878	0.671895
283	C	0.517559	0.488047	0.713421
284	C	0.489708	0.515898	0.714877
285	C	0.476017	0.529595	0.673372
286	N	0.490235	0.515386	0.968132
287	N	0.515997	0.489618	0.967335
288	N	0.477262	0.528347	0.755174
289	H	0.487161	0.518445	0.783082
290	H	0.458181	0.54743	0.757428
291	H	0.528231	0.477374	0.742524
292	C	0.530736	0.056982	0.671899
293	C	0.51756	0.030629	0.713424
294	C	0.489709	0.974926	0.714874
295	C	0.476019	0.947543	0.673365
296	N	0.490237	0.975977	0.968129
297	N	0.516001	0.027504	0.967335
298	N	0.477258	0.950028	0.755171
299	H	0.487158	0.969827	0.783079
300	H	0.458178	0.911866	0.757421
301	H	0.528231	0.051972	0.742524
302	C	0.948629	0.474874	0.671905
303	C	0.97499	0.488051	0.713428
304	N	0.978102	0.489618	0.967342
305	H	0.093759	0.547438	0.757411
306	H	0.953649	0.477378	0.742531
