data_C168H102N36_2018-02-15_10:47:49
#******************************************
#
# CIF file created by Zeo++
# Zeo++ is an open source package to
# analyze microporous materials
#
#*******************************************

_cell_length_a		25.6786   
_cell_length_b		25.6785   
_cell_length_c		29.314   
_cell_angle_alpha		90   
_cell_angle_beta		90   
_cell_angle_gamma		90.0373   

_symmetry_space_group_name_H-M		'P1'
_symmetry_Int_Tables_number		1
_symmetry_cell_setting		Monoclinic

loop_
_symmetry_equiv_pos_as_xyz
'+x,+y,+z'

loop_
_atom_site_label
_atom_site_type_symbol
_atom_site_fract_x
_atom_site_fract_y
_atom_site_fract_z
1	C	0.78297	0.017226	0.03903
2	C	0.728441	0.01549	0.032776
3	C	0.015468	0.238337	0.038949
4	C	0.014075	0.292878	0.032681
5	C	0.291579	0.007422	0.032917
6	C	0.237053	0.005669	0.039187
7	C	0.004556	0.784504	0.039025
8	C	0.005981	0.729964	0.032759
9	H	0.99873	0.706478	0.060228
10	H	0.996325	0.7991	0.070695
11	H	0.222506	0.997047	0.070801
12	H	0.315099	4.6e-05	0.060332
13	H	0.02367	0.223739	0.070624
14	H	0.021333	0.316362	0.060149
15	H	0.704932	0.022891	0.060194
16	H	0.797533	0.025873	0.070631
17	N	0.010155	0.537009	0.045655
18	N	0.010188	0.485795	0.045632
19	N	0.009639	0.618342	0.011019
20	N	0.484419	0.011542	0.045714
21	N	0.535629	0.011542	0.045688
22	N	0.403106	0.011063	0.011074
23	N	0.01047	0.404502	0.010941
24	N	0.616898	0.011804	0.010982
25	C	0.916168	0.874369	0.339692
26	C	0.877315	0.911528	0.339989
27	C	0.90053	0.960745	0.341632
28	N	0.952567	0.951336	0.343348
29	C	0.964263	0.899752	0.341721
30	C	0.013619	0.874322	0.341057
31	C	0.062356	0.9008	0.341598
32	N	0.071466	0.952734	0.342826
33	C	0.122971	0.964074	0.341755
34	C	0.148581	0.916147	0.339917
35	C	0.111386	0.877301	0.340199
36	C	0.147179	0.013941	0.34123
37	C	0.119487	0.062105	0.341779
38	N	0.067447	0.071516	0.343464
39	C	0.055755	0.123094	0.341779
40	C	0.103858	0.14848	0.339852
41	C	0.142708	0.11132	0.340172
42	C	0.006397	0.148519	0.34098
43	C	0.957658	0.122045	0.341509
44	N	0.948547	0.070112	0.342755
45	C	0.897041	0.05877	0.341656
46	C	0.871436	0.106695	0.339735
47	C	0.908633	0.145543	0.340014
48	C	0.87283	0.008906	0.34104
49	C	0.817316	0.007184	0.335674
50	C	0.706419	0.00338	0.323039
51	C	0.741306	0.993593	0.286502
52	C	0.795621	0.995669	0.292573
53	C	0.005537	0.204037	0.335531
54	C	0.002428	0.31494	0.322868
55	C	0.992798	0.280088	0.286265
56	C	0.994507	0.225771	0.292355
57	C	0.20269	0.015664	0.335835
58	C	0.224365	0.027139	0.292717
59	C	0.278676	0.029234	0.28663
60	C	0.313579	0.019495	0.323163
61	C	0.014498	0.818805	0.335611
62	C	0.025571	0.797075	0.292441
63	C	0.017689	0.707903	0.322957
64	C	0.027322	0.742757	0.286356
65	H	0.035845	0.728917	0.254452
66	H	0.032836	0.820748	0.265059
67	H	0.909572	0.835188	0.337801
68	H	0.838437	0.903187	0.338524
69	H	0.978384	0.97832	0.344723
70	H	0.041622	0.044525	0.344634
71	H	0.119474	0.83837	0.338859
72	H	0.187806	0.909757	0.338262
73	H	0.200651	0.034361	0.265359
74	H	0.292484	0.037982	0.254755
75	H	0.181585	0.119658	0.338706
76	H	0.110453	0.187653	0.337833
77	H	0.832221	0.113084	0.33794
78	H	0.90055	0.184469	0.338575
79	H	0.987252	0.202099	0.264969
80	H	0.98431	0.293934	0.254355
81	H	0.819321	0.988429	0.26521
82	H	0.727483	0.984823	0.254639
83	C	0.99983	0.368635	0.314833
84	C	0.367266	0.02232	0.315135
85	C	0.020329	0.654212	0.314927
86	C	0.652727	0.00056	0.315028
87	H	0.988568	0.379909	0.283928
88	H	0.378558	0.034186	0.284394
89	H	0.031673	0.642938	0.284043
90	H	0.64143	0.988694	0.284294
91	C	0.009935	0.456529	0.34025
92	C	0.010074	0.484082	0.298471
93	C	0.009778	0.538816	0.298496
94	C	0.010197	0.566318	0.006963
95	H	0.009	0.557933	0.267952
96	H	0.010634	0.465003	0.267904
97	N	0.01047	0.404502	0.344276
98	C	0.564883	0.011246	0.340302
99	C	0.537342	0.01141	0.298518
100	C	0.4826	0.011168	0.298546
101	C	0.455118	0.011608	0.007021
102	H	0.463448	0.010409	0.268014
103	H	0.556447	0.011975	0.267962
104	N	0.616898	0.011804	0.344314
105	C	0.916168	0.874369	0.673027
106	C	0.877315	0.911528	0.673324
107	C	0.90053	0.960745	0.674965
108	N	0.952567	0.951336	0.676681
109	C	0.964263	0.899752	0.675053
110	C	0.013619	0.874322	0.674392
111	C	0.062356	0.9008	0.674931
112	N	0.071466	0.952734	0.676162
113	C	0.122971	0.964074	0.675087
114	C	0.148581	0.916147	0.673249
115	C	0.111386	0.877301	0.673532
116	C	0.147179	0.013941	0.674562
117	C	0.119487	0.062105	0.675111
118	N	0.067447	0.071516	0.6768
119	C	0.055755	0.123094	0.675111
120	C	0.103858	0.14848	0.673184
121	C	0.142708	0.11132	0.673505
122	C	0.006397	0.148519	0.674313
123	C	0.957658	0.122045	0.674842
124	N	0.948547	0.070112	0.676087
125	C	0.897041	0.05877	0.674992
126	C	0.871436	0.106695	0.673068
127	C	0.908633	0.145543	0.673348
128	C	0.87283	0.008906	0.674375
129	C	0.817316	0.007184	0.669008
130	C	0.78297	0.017226	0.372362
131	C	0.728441	0.01549	0.366109
132	C	0.706419	0.00338	0.656373
133	C	0.741306	0.993593	0.619834
134	C	0.795621	0.995669	0.625906
135	C	0.005537	0.204037	0.668865
136	C	0.015468	0.238337	0.372283
137	C	0.014075	0.292878	0.366013
138	C	0.002428	0.31494	0.656202
139	C	0.992798	0.280088	0.619599
140	C	0.994507	0.225771	0.625688
141	C	0.20269	0.015664	0.669169
142	C	0.224365	0.027139	0.626049
143	C	0.278676	0.029234	0.619964
144	C	0.313579	0.019495	0.656496
145	C	0.291579	0.007422	0.366248
146	C	0.237053	0.005669	0.372519
147	C	0.014498	0.818805	0.668944
148	C	0.025571	0.797075	0.625773
149	C	0.004556	0.784504	0.372358
150	C	0.005981	0.729964	0.366092
151	C	0.017689	0.707903	0.656291
152	C	0.027322	0.742757	0.619691
153	H	0.035845	0.728917	0.587784
154	H	0.032836	0.820748	0.598394
155	H	0.99873	0.706478	0.39356
156	H	0.996325	0.7991	0.404029
157	H	0.909572	0.835188	0.671134
158	H	0.838437	0.903187	0.671857
159	H	0.978384	0.97832	0.678059
160	H	0.041622	0.044525	0.67797
161	H	0.119474	0.83837	0.672191
162	H	0.187806	0.909757	0.671594
163	H	0.200651	0.034361	0.598694
164	H	0.292484	0.037982	0.588088
165	H	0.222506	0.997047	0.404135
166	H	0.315099	4.6e-05	0.393665
167	H	0.181585	0.119658	0.672041
168	H	0.110453	0.187653	0.671164
169	H	0.832221	0.113084	0.671274
170	H	0.90055	0.184469	0.671908
171	H	0.02367	0.223739	0.403957
172	H	0.021333	0.316362	0.393481
173	H	0.987252	0.202099	0.598302
174	H	0.98431	0.293934	0.587689
175	H	0.819321	0.988429	0.598544
176	H	0.727483	0.984823	0.587972
177	H	0.704932	0.022891	0.393526
178	H	0.797533	0.025873	0.403964
179	C	0.99983	0.368635	0.648165
180	C	0.367266	0.02232	0.648469
181	C	0.020329	0.654212	0.648261
182	C	0.652727	0.00056	0.64836
183	H	0.988568	0.379909	0.617262
184	H	0.378558	0.034186	0.617726
185	H	0.031673	0.642938	0.617374
186	H	0.64143	0.988694	0.617627
187	C	0.009935	0.456529	0.673583
188	C	0.010074	0.484082	0.631804
189	C	0.009778	0.538816	0.631828
190	C	0.010197	0.566318	0.340298
191	N	0.010155	0.537009	0.37899
192	H	0.009	0.557933	0.601287
193	H	0.010634	0.465003	0.601239
194	N	0.010188	0.485795	0.378966
195	N	0.01047	0.404502	0.677608
196	N	0.009639	0.618342	0.344354
197	C	0.564883	0.011246	0.673634
198	C	0.537342	0.01141	0.631852
199	C	0.4826	0.011168	0.631879
200	C	0.455118	0.011608	0.340356
201	N	0.484419	0.011542	0.379048
202	H	0.463448	0.010409	0.601348
203	H	0.556447	0.011975	0.601297
204	N	0.535629	0.011542	0.379021
205	N	0.616898	0.011804	0.677649
206	N	0.403106	0.011063	0.344409
207	C	0.916168	0.874369	0.006359
208	C	0.877315	0.911528	0.006656
209	C	0.90053	0.960745	0.008297
210	N	0.952567	0.951336	0.010016
211	C	0.964263	0.899752	0.008386
212	C	0.013619	0.874322	0.007724
213	C	0.062356	0.9008	0.008263
214	N	0.071466	0.952734	0.009495
215	C	0.122971	0.964074	0.00842
216	C	0.148581	0.916147	0.006585
217	C	0.111386	0.877301	0.006864
218	C	0.147179	0.013941	0.007895
219	C	0.119487	0.062105	0.008444
220	N	0.067447	0.071516	0.010132
221	C	0.055755	0.123094	0.008444
222	C	0.103858	0.14848	0.006516
223	C	0.142708	0.11132	0.006837
224	C	0.006397	0.148519	0.007646
225	C	0.957658	0.122045	0.008178
226	N	0.948547	0.070112	0.009419
227	C	0.897041	0.05877	0.008324
228	C	0.871436	0.106695	0.0064
229	C	0.908633	0.145543	0.00668
230	C	0.87283	0.008906	0.007707
231	C	0.817316	0.007184	0.002341
232	C	0.78297	0.017226	0.705694
233	C	0.728441	0.01549	0.699441
234	C	0.706419	0.00338	0.989705
235	C	0.741306	0.993593	0.95317
236	C	0.795621	0.995669	0.959239
237	C	0.005537	0.204037	0.002198
238	C	0.015468	0.238337	0.705616
239	C	0.014075	0.292878	0.699346
240	C	0.002428	0.31494	0.989535
241	C	0.992798	0.280088	0.952931
242	C	0.994507	0.225771	0.95902
243	C	0.20269	0.015664	0.002501
244	C	0.224365	0.027139	0.959382
245	C	0.278676	0.029234	0.953296
246	C	0.313579	0.019495	0.989828
247	C	0.291579	0.007422	0.699584
248	C	0.237053	0.005669	0.705854
249	C	0.014498	0.818805	0.002276
250	C	0.025571	0.797075	0.959109
251	C	0.004556	0.784504	0.705691
252	C	0.005981	0.729964	0.699424
253	C	0.017689	0.707903	0.989623
254	C	0.027322	0.742757	0.953023
255	H	0.035845	0.728917	0.921117
256	H	0.032836	0.820748	0.931726
257	H	0.99873	0.706478	0.726892
258	H	0.996325	0.7991	0.737362
259	H	0.909572	0.835188	0.004466
260	H	0.838437	0.903187	0.005189
261	H	0.978384	0.97832	0.011391
262	H	0.041622	0.044525	0.011303
263	H	0.119474	0.83837	0.005524
264	H	0.187806	0.909757	0.004927
265	H	0.200651	0.034361	0.932026
266	H	0.292484	0.037982	0.92142
267	H	0.222506	0.997047	0.737467
268	H	0.315099	4.6e-05	0.726998
269	H	0.181585	0.119658	0.005374
270	H	0.110453	0.187653	0.0045
271	H	0.832221	0.113084	0.004606
272	H	0.90055	0.184469	0.005241
273	H	0.02367	0.223739	0.73729
274	H	0.021333	0.316362	0.726817
275	H	0.987252	0.202099	0.931634
276	H	0.98431	0.293934	0.921021
277	H	0.819321	0.988429	0.931876
278	H	0.727483	0.984823	0.921305
279	H	0.704932	0.022891	0.726861
280	H	0.797533	0.025873	0.737297
281	C	0.99983	0.368635	0.981498
282	C	0.367266	0.02232	0.981801
283	C	0.020329	0.654212	0.981593
284	C	0.652727	0.00056	0.981692
285	H	0.988568	0.379909	0.950594
286	H	0.378558	0.034186	0.951062
287	H	0.031673	0.642938	0.95071
288	H	0.64143	0.988694	0.950959
289	C	0.009935	0.456529	0.006916
290	C	0.010074	0.484082	0.965137
291	C	0.009778	0.538816	0.965161
292	C	0.010197	0.566318	0.673631
293	N	0.010155	0.537009	0.712322
294	H	0.009	0.557933	0.934619
295	H	0.010634	0.465003	0.934571
296	N	0.010188	0.485795	0.712298
297	N	0.009639	0.618342	0.677687
298	C	0.564883	0.011246	0.006967
299	C	0.537342	0.01141	0.965185
300	C	0.4826	0.011168	0.965212
301	C	0.455118	0.011608	0.673689
302	N	0.484419	0.011542	0.71238
303	H	0.463448	0.010409	0.93468
304	H	0.556447	0.011975	0.934629
305	N	0.535629	0.011542	0.712353
306	N	0.403106	0.011063	0.677742
