data_C204H162N24_2018-02-15_10:47:53
#******************************************
#
# CIF file created by Zeo++
# Zeo++ is an open source package to
# analyze microporous materials
#
#*******************************************

_cell_length_a		26.2556   
_cell_length_b		26.2534   
_cell_length_c		29.9724   
_cell_angle_alpha		90   
_cell_angle_beta		90   
_cell_angle_gamma		90.0298   

_symmetry_space_group_name_H-M		'P1'
_symmetry_Int_Tables_number		1
_symmetry_cell_setting		Monoclinic

loop_
_symmetry_equiv_pos_as_xyz
'+x,+y,+z'

loop_
_atom_site_label
_atom_site_type_symbol
_atom_site_fract_x
_atom_site_fract_y
_atom_site_fract_z
1	C	0.093338	0.136042	0.014078
2	C	0.13124	0.100256	0.012843
3	C	0.108741	0.051911	0.013582
4	N	0.057805	0.060442	0.013446
5	C	0.046362	0.110845	0.013336
6	C	0.997982	0.135497	0.013135
7	C	0.950318	0.109117	0.013219
8	N	0.941002	0.058293	0.013151
9	C	0.890489	0.047324	0.012893
10	C	0.86573	0.094459	0.013391
11	C	0.902226	0.131964	0.012501
12	C	0.866776	0.998403	0.012911
13	C	0.895317	0.951735	0.013271
14	N	0.946543	0.942574	0.013376
15	C	0.958643	0.891994	0.013447
16	C	0.911475	0.867289	0.013952
17	C	0.873422	0.903212	0.012685
18	C	0.006928	0.866398	0.013847
19	C	0.054449	0.892653	0.013909
20	N	0.062422	0.943664	0.013677
21	C	0.112574	0.955814	0.013657
22	C	0.138218	0.909142	0.014412
23	C	0.102911	0.87058	0.013416
24	C	0.135913	0.004967	0.013802
25	C	0.190474	0.007534	0.013746
26	C	0.218324	0.98276	0.312899
27	C	0.271439	0.982447	0.312954
28	C	0.296982	0.010063	0.012483
29	C	0.271206	0.036101	0.046658
30	C	0.217841	0.034194	0.047363
31	C	0.008423	0.811376	0.013672
32	C	0.982563	0.783403	0.313411
33	C	0.982619	0.730091	0.312918
34	C	0.01379	0.703539	0.009315
35	C	0.037628	0.729897	0.045014
36	C	0.035727	0.783433	0.04651
37	C	0.811411	0.996571	0.012899
38	C	0.784188	0.96926	0.046043
39	C	0.73051	0.96603	0.045533
40	C	0.701143	0.99109	0.012651
41	C	0.727897	0.020387	0.313938
42	C	0.781707	0.022173	0.31355
43	C	0.997318	0.190499	0.013094
44	C	0.971109	0.217569	0.046862
45	C	0.022198	0.21971	0.313033
46	C	0.020457	0.273468	0.313322
47	C	0.991948	0.300264	0.012545
48	C	0.967781	0.271129	0.046101
49	H	0.94781	0.289	0.070878
50	H	0.953095	0.198298	0.072042
51	H	0.040133	0.293038	0.28939
52	H	0.042235	0.201993	0.288172
53	H	0.10067	0.174182	0.015309
54	H	0.168888	0.109805	0.011593
55	H	0.032685	0.033808	0.013439
56	H	0.971664	0.969161	0.013412
57	H	0.893474	0.169784	0.011354
58	H	0.827628	0.102039	0.014348
59	H	0.803462	0.950741	0.07091
60	H	0.712724	0.945465	0.070005
61	H	0.799173	0.042825	0.288945
62	H	0.708247	0.040725	0.29049
63	H	0.835791	0.893704	0.011372
64	H	0.90412	0.829172	0.01528
65	H	0.176471	0.902545	0.015631
66	H	0.112718	0.832989	0.01243
67	H	0.962394	0.80172	0.289048
68	H	0.96176	0.710822	0.289481
69	H	0.054603	0.801888	0.071683
70	H	0.05708	0.710566	0.069414
71	H	0.199093	0.052687	0.072536
72	H	0.29065	0.05545	0.070974
73	H	0.290957	0.962766	0.288868
74	H	0.200046	0.963276	0.288061
75	N	0.003035	0.65572	0.016127
76	N	0.649725	0.991254	0.01717
77	N	0.992058	0.351648	0.016784
78	N	0.345632	0.007524	0.0114
79	C	0.997374	0.444506	0.329073
80	C	0.986574	0.477252	0.291307
81	C	0.988328	0.5319	0.295733
82	C	0.001922	0.554735	0.0043
83	C	0.013514	0.522347	0.042154
84	C	0.011626	0.467912	0.037373
85	C	0.976208	0.567256	0.257133
86	H	0.966136	0.549791	0.225498
87	H	0.009119	0.591363	0.250133
88	H	0.944029	0.591481	0.266111
89	C	0.972273	0.456958	0.245527
90	H	0.969738	0.416418	0.239652
91	H	0.999977	0.470483	0.221058
92	H	0.934414	0.470906	0.236842
93	C	0.028425	0.543487	0.088373
94	H	0.031014	0.583878	0.0961
95	H	0.06637	0.529954	0.096828
96	H	0.00096	0.529923	0.112864
97	C	0.025222	0.436899	0.078105
98	H	0.025589	0.396234	0.075111
99	H	0.998406	0.444917	0.10499
100	H	0.063766	0.445934	0.089023
101	C	0.995197	0.390018	0.323148
102	H	0.997274	0.37751	0.292642
103	C	0.008634	0.608812	0.006572
104	H	0.008352	0.610572	0.037867
105	C	0.556807	0.996902	0.329577
106	C	0.524012	0.986157	0.291832
107	C	0.469423	0.987799	0.296347
108	C	0.446937	0.000845	0.004889
109	C	0.479039	0.01307	0.042772
110	C	0.533446	0.011215	0.037891
111	C	0.434121	0.975675	0.257649
112	H	0.451602	0.965649	0.226018
113	H	0.410012	0.008561	0.250641
114	H	0.409889	0.943435	0.266496
115	C	0.544309	0.971809	0.246034
116	H	0.584844	0.969272	0.240145
117	H	0.530821	0.999496	0.221546
118	H	0.530349	0.933935	0.237347
119	C	0.457776	0.02787	0.088894
120	H	0.417408	0.030255	0.096537
121	H	0.471206	0.065859	0.097391
122	H	0.47128	0.000449	0.113412
123	C	0.564475	0.024763	0.078577
124	H	0.605141	0.025115	0.07548
125	H	0.556442	0.997938	0.105459
126	H	0.555464	0.063302	0.089505
127	C	0.611293	0.994651	0.323608
128	H	0.623749	0.996998	0.293092
129	C	0.393438	0.004362	0.008299
130	H	0.390102	0.011681	0.03822
131	C	0.093338	0.136042	0.347409
132	C	0.13124	0.100256	0.346175
133	C	0.108741	0.051911	0.346916
134	N	0.057805	0.060442	0.346779
135	C	0.046362	0.110845	0.346669
136	C	0.997982	0.135497	0.346469
137	C	0.950318	0.109117	0.346552
138	N	0.941002	0.058293	0.346485
139	C	0.890489	0.047324	0.346225
140	C	0.86573	0.094459	0.346726
141	C	0.902226	0.131964	0.345835
142	C	0.866776	0.998403	0.346245
143	C	0.895317	0.951735	0.346605
144	N	0.946543	0.942574	0.346709
145	C	0.958643	0.891994	0.346779
146	C	0.911475	0.867289	0.347286
147	C	0.873422	0.903212	0.346018
148	C	0.006928	0.866398	0.347179
149	C	0.054449	0.892653	0.347243
150	N	0.062422	0.943664	0.347009
151	C	0.112574	0.955814	0.346989
152	C	0.138218	0.909142	0.347746
153	C	0.102911	0.87058	0.346749
154	C	0.135913	0.004967	0.347136
155	C	0.190474	0.007534	0.347079
156	C	0.218324	0.98276	0.646234
157	C	0.271439	0.982447	0.646288
158	C	0.296982	0.010063	0.345818
159	C	0.271206	0.036101	0.379989
160	C	0.217841	0.034194	0.380697
161	C	0.008423	0.811376	0.347006
162	C	0.982563	0.783403	0.646745
163	C	0.982619	0.730091	0.646251
164	C	0.01379	0.703539	0.342648
165	C	0.037628	0.729897	0.378348
166	C	0.035727	0.783433	0.379843
167	C	0.811411	0.996571	0.346232
168	C	0.784188	0.96926	0.379376
169	C	0.73051	0.96603	0.378865
170	C	0.701143	0.99109	0.345985
171	C	0.727897	0.020387	0.647272
172	C	0.781707	0.022173	0.646885
173	C	0.997318	0.190499	0.346429
174	C	0.971109	0.217569	0.380196
175	C	0.022198	0.21971	0.646368
176	C	0.020457	0.273468	0.646655
177	C	0.991948	0.300264	0.345878
178	C	0.967781	0.271129	0.379436
179	H	0.94781	0.289	0.404212
180	H	0.953095	0.198298	0.405376
181	H	0.040133	0.293038	0.622723
182	H	0.042235	0.201993	0.621505
183	H	0.10067	0.174182	0.348641
184	H	0.168888	0.109805	0.344927
185	H	0.032685	0.033808	0.346772
186	H	0.971664	0.969161	0.346746
187	H	0.893474	0.169784	0.344687
188	H	0.827628	0.102039	0.347683
189	H	0.803462	0.950741	0.404245
190	H	0.712724	0.945465	0.403338
191	H	0.799173	0.042825	0.622279
192	H	0.708247	0.040725	0.623824
193	H	0.835791	0.893704	0.344707
194	H	0.90412	0.829172	0.348614
195	H	0.176471	0.902545	0.348964
196	H	0.112718	0.832989	0.345765
197	H	0.962394	0.80172	0.622382
198	H	0.96176	0.710822	0.622813
199	H	0.054603	0.801888	0.405016
200	H	0.05708	0.710566	0.402747
201	H	0.199093	0.052687	0.40587
202	H	0.29065	0.05545	0.404308
203	H	0.290957	0.962766	0.622202
204	H	0.200046	0.963276	0.621395
205	N	0.003035	0.65572	0.349461
206	N	0.649725	0.991254	0.350502
207	N	0.992058	0.351648	0.350119
208	N	0.345632	0.007524	0.344734
209	C	0.997374	0.444506	0.662406
210	C	0.986574	0.477252	0.624641
211	C	0.988328	0.5319	0.629069
212	C	0.001922	0.554735	0.337634
213	C	0.013514	0.522347	0.375489
214	C	0.011626	0.467912	0.370708
215	C	0.976208	0.567256	0.590466
216	H	0.966136	0.549791	0.558831
217	H	0.009119	0.591363	0.583467
218	H	0.944029	0.591481	0.599445
219	C	0.972273	0.456958	0.578862
220	H	0.969738	0.416418	0.572984
221	H	0.999977	0.470483	0.55439
222	H	0.934414	0.470906	0.570174
223	C	0.028425	0.543487	0.421708
224	H	0.031014	0.583878	0.429435
225	H	0.06637	0.529954	0.430162
226	H	0.00096	0.529923	0.446197
227	C	0.025222	0.436899	0.411438
228	H	0.025589	0.396234	0.408446
229	H	0.998406	0.444917	0.438323
230	H	0.063766	0.445934	0.422355
231	C	0.995197	0.390018	0.65648
232	H	0.997274	0.37751	0.625976
233	C	0.008634	0.608812	0.339906
234	H	0.008352	0.610572	0.371201
235	C	0.556807	0.996902	0.66291
236	C	0.524012	0.986157	0.625165
237	C	0.469423	0.987799	0.629679
238	C	0.446937	0.000845	0.338221
239	C	0.479039	0.01307	0.376106
240	C	0.533446	0.011215	0.371225
241	C	0.434121	0.975675	0.590983
242	H	0.451602	0.965649	0.559351
243	H	0.410012	0.008561	0.583974
244	H	0.409889	0.943435	0.599828
245	C	0.544309	0.971809	0.579366
246	H	0.584844	0.969272	0.573477
247	H	0.530821	0.999496	0.55488
248	H	0.530349	0.933935	0.570681
249	C	0.457776	0.02787	0.422228
250	H	0.417408	0.030255	0.429869
251	H	0.471206	0.065859	0.430726
252	H	0.47128	0.000449	0.446744
253	C	0.564475	0.024763	0.411909
254	H	0.605141	0.025115	0.408813
255	H	0.556442	0.997938	0.438794
256	H	0.555464	0.063302	0.422839
257	C	0.611293	0.994651	0.656941
258	H	0.623749	0.996998	0.626426
259	C	0.393438	0.004362	0.341631
260	H	0.390102	0.011681	0.371555
261	C	0.093338	0.136042	0.680746
262	C	0.13124	0.100256	0.679512
263	C	0.108741	0.051911	0.680249
264	N	0.057805	0.060442	0.680112
265	C	0.046362	0.110845	0.680002
266	C	0.997982	0.135497	0.679802
267	C	0.950318	0.109117	0.679885
268	N	0.941002	0.058293	0.679819
269	C	0.890489	0.047324	0.679558
270	C	0.86573	0.094459	0.680059
271	C	0.902226	0.131964	0.679168
272	C	0.866776	0.998403	0.679578
273	C	0.895317	0.951735	0.679939
274	N	0.946543	0.942574	0.680042
275	C	0.958643	0.891994	0.680112
276	C	0.911475	0.867289	0.680619
277	C	0.873422	0.903212	0.679351
278	C	0.006928	0.866398	0.680512
279	C	0.054449	0.892653	0.680576
280	N	0.062422	0.943664	0.680342
281	C	0.112574	0.955814	0.680326
282	C	0.138218	0.909142	0.68108
283	C	0.102911	0.87058	0.680082
284	C	0.135913	0.004967	0.680469
285	C	0.190474	0.007534	0.680412
286	C	0.218324	0.98276	0.979568
287	C	0.271439	0.982447	0.979621
288	C	0.296982	0.010063	0.679151
289	C	0.271206	0.036101	0.713326
290	C	0.217841	0.034194	0.71403
291	C	0.008423	0.811376	0.680339
292	C	0.982563	0.783403	0.980078
293	C	0.982619	0.730091	0.979584
294	C	0.01379	0.703539	0.675982
295	C	0.037628	0.729897	0.711681
296	C	0.035727	0.783433	0.713176
297	C	0.811411	0.996571	0.679565
298	C	0.784188	0.96926	0.712709
299	C	0.73051	0.96603	0.712198
300	C	0.701143	0.99109	0.679318
301	C	0.727897	0.020387	0.980605
302	C	0.781707	0.022173	0.980218
303	C	0.997318	0.190499	0.679762
304	C	0.971109	0.217569	0.71353
305	C	0.022198	0.21971	0.979701
306	C	0.020457	0.273468	0.979988
307	C	0.991948	0.300264	0.679211
308	C	0.967781	0.271129	0.712769
309	H	0.94781	0.289	0.737545
310	H	0.953095	0.198298	0.738709
311	H	0.040133	0.293038	0.956056
312	H	0.042235	0.201993	0.954838
313	H	0.10067	0.174182	0.681977
314	H	0.168888	0.109805	0.67826
315	H	0.032685	0.033808	0.680105
316	H	0.971664	0.969161	0.680079
317	H	0.893474	0.169784	0.67802
318	H	0.827628	0.102039	0.681016
319	H	0.803462	0.950741	0.737578
320	H	0.712724	0.945465	0.736671
321	H	0.799173	0.042825	0.955612
322	H	0.708247	0.040725	0.957157
323	H	0.835791	0.893704	0.67804
324	H	0.90412	0.829172	0.681947
325	H	0.176471	0.902545	0.682297
326	H	0.112718	0.832989	0.679098
327	H	0.962394	0.80172	0.955716
328	H	0.96176	0.710822	0.956149
329	H	0.054603	0.801888	0.738349
330	H	0.05708	0.710566	0.73608
331	H	0.199093	0.052687	0.739203
332	H	0.29065	0.05545	0.737642
333	H	0.290957	0.962766	0.955535
334	H	0.200046	0.963276	0.954728
335	N	0.003035	0.65572	0.682795
336	N	0.649725	0.991254	0.683836
337	N	0.992058	0.351648	0.683452
338	N	0.345632	0.007524	0.678067
339	C	0.997374	0.444506	0.995739
340	C	0.986574	0.477252	0.957974
341	C	0.988328	0.5319	0.962402
342	C	0.001922	0.554735	0.670967
343	C	0.013514	0.522347	0.708822
344	C	0.011626	0.467912	0.704041
345	C	0.976208	0.567256	0.9238
346	H	0.966136	0.549791	0.892164
347	H	0.009119	0.591363	0.9168
348	H	0.944029	0.591481	0.932778
349	C	0.972273	0.456958	0.912196
350	H	0.969738	0.416418	0.90632
351	H	0.999977	0.470483	0.887723
352	H	0.934414	0.470906	0.903508
353	C	0.028425	0.543487	0.755041
354	H	0.031014	0.583878	0.762768
355	H	0.06637	0.529954	0.763495
356	H	0.00096	0.529923	0.77953
357	C	0.025222	0.436899	0.744772
358	H	0.025589	0.396234	0.741779
359	H	0.998406	0.444917	0.771656
360	H	0.063766	0.445934	0.755688
361	C	0.995197	0.390018	0.989814
362	H	0.997274	0.37751	0.959309
363	C	0.008634	0.608812	0.673239
364	H	0.008352	0.610572	0.704535
365	C	0.556807	0.996902	0.996243
366	C	0.524012	0.986157	0.958498
367	C	0.469423	0.987799	0.963012
368	C	0.446937	0.000845	0.671558
369	C	0.479039	0.01307	0.709439
370	C	0.533446	0.011215	0.704558
371	C	0.434121	0.975675	0.924317
372	H	0.451602	0.965649	0.892684
373	H	0.410012	0.008561	0.917307
374	H	0.409889	0.943435	0.933165
375	C	0.544309	0.971809	0.912699
376	H	0.584844	0.969272	0.906811
377	H	0.530821	0.999496	0.888213
378	H	0.530349	0.933935	0.904015
379	C	0.457776	0.02787	0.755562
380	H	0.417408	0.030255	0.763205
381	H	0.471206	0.065859	0.764059
382	H	0.47128	0.000449	0.780081
383	C	0.564475	0.024763	0.745242
384	H	0.605141	0.025115	0.742146
385	H	0.556442	0.997938	0.772127
386	H	0.555464	0.063302	0.756172
387	C	0.611293	0.994651	0.990274
388	H	0.623749	0.996998	0.959759
389	C	0.393438	0.004362	0.674964
390	H	0.390102	0.011681	0.704888
