data_C180H126N36_2018-02-15_10:47:44
#******************************************
#
# CIF file created by Zeo++
# Zeo++ is an open source package to
# analyze microporous materials
#
#*******************************************

_cell_length_a		25.5367   
_cell_length_b		25.5365   
_cell_length_c		29.1304   
_cell_angle_alpha		90   
_cell_angle_beta		90   
_cell_angle_gamma		90.0372   

_symmetry_space_group_name_H-M		'P1'
_symmetry_Int_Tables_number		1
_symmetry_cell_setting		Monoclinic

loop_
_symmetry_equiv_pos_as_xyz
'+x,+y,+z'

loop_
_atom_site_label
_atom_site_type_symbol
_atom_site_fract_x
_atom_site_fract_y
_atom_site_fract_z
1	C	0.787432	0.019721	0.04269
2	C	0.73254	0.015287	0.038983
3	C	0.018716	0.240959	0.042338
4	C	0.014598	0.295881	0.038696
5	C	0.29549	0.009985	0.036364
6	C	0.240589	0.009554	0.041744
7	C	0.009244	0.788028	0.041842
8	C	0.009408	0.733119	0.036476
9	H	0.002376	0.710359	0.064722
10	H	0.00224	0.803606	0.073627
11	H	0.225049	0.001879	0.073428
12	H	0.31827	0.002506	0.064504
13	H	0.027814	0.224746	0.073465
14	H	0.020625	0.318161	0.067429
15	H	0.710191	0.021163	0.067695
16	H	0.803552	0.029002	0.073817
17	C	0.011648	0.559242	0.104615
18	C	0.014372	0.538288	0.057353
19	H	0.976188	0.544886	0.121332
20	H	0.01103	0.601934	0.105492
21	H	0.045603	0.545854	0.124094
22	N	0.015414	0.485242	0.052526
23	C	0.469202	0.012068	0.104577
24	C	0.490213	0.014915	0.057339
25	H	0.483417	0.976519	0.121207
26	H	0.426506	0.011536	0.105421
27	H	0.482684	0.045924	0.12416
28	N	0.543267	0.015872	0.05256
29	C	0.016487	0.569295	0.017053
30	N	0.016415	0.621584	0.018688
31	C	0.45926	0.017257	0.017018
32	N	0.406974	0.017259	0.018621
33	H	0.034613	0.728686	0.25656
34	H	0.033806	0.821467	0.265675
35	H	0.207036	0.035626	0.265885
36	H	0.299821	0.036944	0.256759
37	H	0.988173	0.209789	0.266779
38	H	0.980217	0.302822	0.260712
39	H	0.8189	0.989587	0.267114
40	H	0.725914	0.980976	0.260963
41	C	0.026737	0.46876	0.257915
42	H	0.060584	0.442723	0.256712
43	H	0.03261	0.499825	0.232656
44	H	0.991737	0.44698	0.248198
45	C	0.559945	0.027586	0.257998
46	H	0.586071	0.061402	0.256901
47	H	0.528931	0.03357	0.232716
48	H	0.581647	0.992587	0.248234
49	C	0.741569	0.991835	0.291912
50	C	0.991054	0.287076	0.291628
51	C	0.230151	0.028952	0.294003
52	C	0.284924	0.029605	0.288769
53	C	0.027369	0.798382	0.293861
54	C	0.027758	0.74361	0.288639
55	H	0.386052	0.02295	0.28725
56	H	0.021023	0.642507	0.287252
57	C	0.796314	0.996949	0.295428
58	C	0.995827	0.232304	0.29508
59	H	0.962547	0.385562	0.306303
60	H	0.64301	0.963146	0.306342
61	C	0.020681	0.490482	0.304651
62	N	0.019928	0.543434	0.309614
63	C	0.538137	0.021425	0.304695
64	N	0.485174	0.02077	0.309607
65	C	0.37296	0.020134	0.319361
66	C	0.018706	0.655606	0.319391
67	C	0.708756	0.000759	0.330283
68	C	0.00018	0.319796	0.330032
69	C	0.31881	0.020024	0.326394
70	C	0.018698	0.70976	0.326397
71	C	0.991842	0.373419	0.326168
72	C	0.655137	0.992375	0.326307
73	C	0.919423	0.876991	0.341596
74	C	0.880362	0.914318	0.341813
75	C	0.903737	0.963836	0.342252
76	N	0.956064	0.954488	0.343343
77	C	0.967774	0.902625	0.342515
78	C	0.017398	0.87714	0.341766
79	C	0.066403	0.903632	0.342096
80	N	0.075472	0.955835	0.343253
81	C	0.127228	0.967199	0.34226
82	C	0.153039	0.919013	0.340574
83	C	0.115665	0.87994	0.340775
84	C	0.151437	0.017372	0.341778
85	C	0.123714	0.065821	0.342131
86	N	0.071406	0.075233	0.343566
87	C	0.059694	0.127075	0.34192
88	C	0.10805	0.152647	0.340162
89	C	0.147116	0.115286	0.34058
90	C	0.010041	0.152533	0.341191
91	C	0.96102	0.125985	0.341873
92	N	0.95194	0.073772	0.342615
93	C	0.90016	0.062396	0.342024
94	C	0.874299	0.110544	0.340953
95	C	0.911679	0.14961	0.3413
96	C	0.875934	0.012249	0.341468
97	C	0.820041	0.010306	0.337676
98	C	0.009001	0.208446	0.337311
99	C	0.207237	0.01901	0.337254
100	C	0.018178	0.821334	0.337218
101	H	0.912791	0.837538	0.340617
102	H	0.841252	0.905856	0.341206
103	H	0.982048	0.981673	0.343641
104	H	0.045427	0.04807	0.344791
105	H	0.123762	0.840776	0.339522
106	H	0.192495	0.912611	0.339027
107	H	0.186234	0.12363	0.339245
108	H	0.114645	0.19206	0.338221
109	H	0.834819	0.116928	0.339928
110	H	0.903469	0.188763	0.340628
111	C	0.017643	0.459593	0.011707
112	C	0.016487	0.569295	0.350387
113	N	0.020636	0.407581	0.01331
114	N	0.016415	0.621584	0.352021
115	C	0.568961	0.018188	0.011769
116	C	0.45926	0.017257	0.350349
117	N	0.620975	0.021126	0.013441
118	N	0.406974	0.017259	0.351956
119	C	0.919423	0.876991	0.674928
120	C	0.880362	0.914318	0.675144
121	C	0.903737	0.963836	0.675584
122	N	0.956064	0.954488	0.676675
123	C	0.967774	0.902625	0.675848
124	C	0.017398	0.87714	0.6751
125	C	0.066403	0.903632	0.675429
126	N	0.075472	0.955835	0.676586
127	C	0.127228	0.967199	0.675594
128	C	0.153039	0.919013	0.673908
129	C	0.115665	0.87994	0.674107
130	C	0.151437	0.017372	0.67511
131	C	0.123714	0.065821	0.675463
132	N	0.071406	0.075233	0.676898
133	C	0.059694	0.127075	0.675254
134	C	0.10805	0.152647	0.673493
135	C	0.147116	0.115286	0.673912
136	C	0.010041	0.152533	0.674523
137	C	0.96102	0.125985	0.675206
138	N	0.95194	0.073772	0.675947
139	C	0.90016	0.062396	0.675357
140	C	0.874299	0.110544	0.674286
141	C	0.911679	0.14961	0.674633
142	C	0.875934	0.012249	0.674801
143	C	0.820041	0.010306	0.671008
144	C	0.787432	0.019721	0.376023
145	C	0.73254	0.015287	0.372316
146	C	0.708756	0.000759	0.663617
147	C	0.741569	0.991835	0.625244
148	C	0.796314	0.996949	0.62876
149	C	0.009001	0.208446	0.670644
150	C	0.018716	0.240959	0.37567
151	C	0.014598	0.295881	0.372031
152	C	0.00018	0.319796	0.663366
153	C	0.991054	0.287076	0.624959
154	C	0.995827	0.232304	0.628413
155	C	0.207237	0.01901	0.670585
156	C	0.230151	0.028952	0.627335
157	C	0.284924	0.029605	0.622103
158	C	0.31881	0.020024	0.659727
159	C	0.29549	0.009985	0.369697
160	C	0.240589	0.009554	0.375076
161	C	0.018178	0.821334	0.670551
162	C	0.027369	0.798382	0.627194
163	C	0.009244	0.788028	0.375175
164	C	0.009408	0.733119	0.36981
165	C	0.018698	0.70976	0.659731
166	C	0.027758	0.74361	0.621973
167	H	0.034613	0.728686	0.589893
168	H	0.033806	0.821467	0.599007
169	H	0.002376	0.710359	0.398055
170	H	0.00224	0.803606	0.40696
171	H	0.912791	0.837538	0.67395
172	H	0.841252	0.905856	0.67454
173	H	0.982048	0.981673	0.676977
174	H	0.045427	0.04807	0.678124
175	H	0.123762	0.840776	0.672855
176	H	0.192495	0.912611	0.67236
177	H	0.207036	0.035626	0.599217
178	H	0.299821	0.036944	0.590092
179	H	0.225049	0.001879	0.406761
180	H	0.31827	0.002506	0.397836
181	H	0.186234	0.12363	0.672576
182	H	0.114645	0.19206	0.671553
183	H	0.834819	0.116928	0.67326
184	H	0.903469	0.188763	0.67396
185	H	0.027814	0.224746	0.406799
186	H	0.020625	0.318161	0.40076
187	H	0.988173	0.209789	0.600113
188	H	0.980217	0.302822	0.594047
189	H	0.8189	0.989587	0.600446
190	H	0.725914	0.980976	0.594297
191	H	0.710191	0.021163	0.401028
192	H	0.803552	0.029002	0.407149
193	C	0.991842	0.373419	0.659501
194	C	0.37296	0.020134	0.652693
195	C	0.018706	0.655606	0.652724
196	C	0.655137	0.992375	0.659641
197	H	0.962547	0.385562	0.639635
198	H	0.386052	0.02295	0.620583
199	H	0.021023	0.642507	0.620586
200	H	0.64301	0.963146	0.639676
201	C	0.011648	0.559242	0.437948
202	C	0.014372	0.538288	0.390685
203	H	0.976188	0.544886	0.454663
204	H	0.01103	0.601934	0.438824
205	H	0.045603	0.545854	0.457426
206	N	0.015414	0.485242	0.385858
207	C	0.017643	0.459593	0.345042
208	C	0.020681	0.490482	0.637984
209	C	0.026737	0.46876	0.591249
210	H	0.060584	0.442723	0.590044
211	H	0.03261	0.499825	0.56599
212	H	0.991737	0.44698	0.581531
213	N	0.019928	0.543434	0.642948
214	C	0.016487	0.569295	0.683719
215	N	0.020636	0.407581	0.346642
216	N	0.016415	0.621584	0.685353
217	C	0.469202	0.012068	0.437911
218	C	0.490213	0.014915	0.390671
219	H	0.483417	0.976519	0.454539
220	H	0.426506	0.011536	0.438755
221	H	0.482684	0.045924	0.457492
222	N	0.543267	0.015872	0.385893
223	C	0.568961	0.018188	0.345104
224	C	0.538137	0.021425	0.638028
225	C	0.559945	0.027586	0.591331
226	H	0.586071	0.061402	0.590233
227	H	0.528931	0.03357	0.566048
228	H	0.581647	0.992587	0.581568
229	N	0.485174	0.02077	0.642941
230	C	0.45926	0.017257	0.683685
231	N	0.620975	0.021126	0.346772
232	N	0.406974	0.017259	0.685288
233	C	0.919423	0.876991	0.00826
234	C	0.880362	0.914318	0.00848
235	C	0.903737	0.963836	0.00892
236	N	0.956064	0.954488	0.010008
237	C	0.967774	0.902625	0.00918
238	C	0.017398	0.87714	0.008432
239	C	0.066403	0.903632	0.008762
240	N	0.075472	0.955835	0.009919
241	C	0.127228	0.967199	0.008926
242	C	0.153039	0.919013	0.007241
243	C	0.115665	0.87994	0.00744
244	C	0.151437	0.017372	0.008442
245	C	0.123714	0.065821	0.008796
246	N	0.071406	0.075233	0.010231
247	C	0.059694	0.127075	0.008587
248	C	0.10805	0.152647	0.006829
249	C	0.147116	0.115286	0.007244
250	C	0.010041	0.152533	0.007855
251	C	0.96102	0.125985	0.008539
252	N	0.95194	0.073772	0.00928
253	C	0.90016	0.062396	0.00869
254	C	0.874299	0.110544	0.007619
255	C	0.911679	0.14961	0.007965
256	C	0.875934	0.012249	0.008133
257	C	0.820041	0.010306	0.004344
258	C	0.787432	0.019721	0.709356
259	C	0.73254	0.015287	0.705648
260	C	0.708756	0.000759	0.996949
261	C	0.741569	0.991835	0.958577
262	C	0.796314	0.996949	0.962092
263	C	0.009001	0.208446	0.003976
264	C	0.018716	0.240959	0.709006
265	C	0.014598	0.295881	0.705364
266	C	0.00018	0.319796	0.996699
267	C	0.991054	0.287076	0.958292
268	C	0.995827	0.232304	0.961745
269	C	0.207237	0.01901	0.003921
270	C	0.230151	0.028952	0.960668
271	C	0.284924	0.029605	0.955436
272	C	0.31881	0.020024	0.99306
273	C	0.29549	0.009985	0.703029
274	C	0.240589	0.009554	0.708408
275	C	0.018178	0.821334	0.003884
276	C	0.027369	0.798382	0.960527
277	C	0.009244	0.788028	0.708508
278	C	0.009408	0.733119	0.703142
279	C	0.018698	0.70976	0.993063
280	C	0.027758	0.74361	0.955305
281	H	0.034613	0.728686	0.923226
282	H	0.033806	0.821467	0.93234
283	H	0.002376	0.710359	0.731388
284	H	0.00224	0.803606	0.740293
285	H	0.912791	0.837538	0.007282
286	H	0.841252	0.905856	0.007873
287	H	0.982048	0.981673	0.01031
288	H	0.045427	0.04807	0.011456
289	H	0.123762	0.840776	0.006187
290	H	0.192495	0.912611	0.005693
291	H	0.207036	0.035626	0.932549
292	H	0.299821	0.036944	0.923425
293	H	0.225049	0.001879	0.740094
294	H	0.31827	0.002506	0.731168
295	H	0.186234	0.12363	0.005909
296	H	0.114645	0.19206	0.004886
297	H	0.834819	0.116928	0.006596
298	H	0.903469	0.188763	0.007292
299	H	0.027814	0.224746	0.740131
300	H	0.020625	0.318161	0.734096
301	H	0.988173	0.209789	0.933445
302	H	0.980217	0.302822	0.927379
303	H	0.8189	0.989587	0.933782
304	H	0.725914	0.980976	0.92763
305	H	0.710191	0.021163	0.734361
306	H	0.803552	0.029002	0.740482
307	C	0.991842	0.373419	0.992833
308	C	0.37296	0.020134	0.986026
309	C	0.018706	0.655606	0.986057
310	C	0.655137	0.992375	0.992974
311	H	0.962547	0.385562	0.972967
312	H	0.386052	0.02295	0.953915
313	H	0.021023	0.642507	0.953919
314	H	0.64301	0.963146	0.973009
315	C	0.011648	0.559242	0.771281
316	C	0.014372	0.538288	0.724018
317	H	0.976188	0.544886	0.787999
318	H	0.01103	0.601934	0.77216
319	H	0.045603	0.545854	0.790759
320	N	0.015414	0.485242	0.719191
321	C	0.017643	0.459593	0.678375
322	C	0.020681	0.490482	0.971316
323	C	0.026737	0.46876	0.924581
324	H	0.060584	0.442723	0.923377
325	H	0.03261	0.499825	0.899323
326	H	0.991737	0.44698	0.914863
327	N	0.019928	0.543434	0.97628
328	N	0.020636	0.407581	0.679978
329	C	0.469202	0.012068	0.771243
330	C	0.490213	0.014915	0.724004
331	H	0.483417	0.976519	0.787872
332	H	0.426506	0.011536	0.772088
333	H	0.482684	0.045924	0.790828
334	N	0.543267	0.015872	0.719225
335	C	0.568961	0.018188	0.678436
336	C	0.538137	0.021425	0.971361
337	C	0.559945	0.027586	0.924664
338	H	0.586071	0.061402	0.923565
339	H	0.528931	0.03357	0.899381
340	H	0.581647	0.992587	0.914901
341	N	0.485174	0.02077	0.976273
342	N	0.620975	0.021126	0.680105
