data_C180H126N36O18_2018-02-15_10:42:28
#******************************************
#
# CIF file created by Zeo++
# Zeo++ is an open source package to
# analyze microporous materials
#
#*******************************************

_cell_length_a		29.3478   
_cell_length_b		29.3478   
_cell_length_c		29.8496   
_cell_angle_alpha		90   
_cell_angle_beta		90   
_cell_angle_gamma		120   

_symmetry_space_group_name_H-M		'P1'
_symmetry_Int_Tables_number		1
_symmetry_cell_setting		Monoclinic

loop_
_symmetry_equiv_pos_as_xyz
'+x,+y,+z'

loop_
_atom_site_label
_atom_site_type_symbol
_atom_site_fract_x
_atom_site_fract_y
_atom_site_fract_z
1	C	0.027368	0.514316	0.293755
2	N	0.03314	0.517196	0.039975
3	O	0.041378	0.521327	0.249228
4	C	0.027368	0.514316	0.62709
5	N	0.03314	0.517196	0.373308
6	O	0.041378	0.521327	0.582563
7	C	0.027368	0.514316	0.960424
8	N	0.03314	0.517196	0.706642
9	O	0.041378	0.521327	0.915894
10	C	0.058523	0.529893	0.333265
11	C	0.058523	0.529893	0.666598
12	C	0.058523	0.529893	0.999932
13	C	0.364303	0.723571	0.00561
14	N	0.389774	0.695517	0.005551
15	C	0.364303	0.641992	0.005607
16	N	0.31078	0.616523	0.005553
17	C	0.282725	0.641992	0.005613
18	N	0.310779	0.695517	0.005553
19	C	0.392428	0.613868	0.005129
20	C	0.44824	0.64067	0.004766
21	C	0.476009	0.613061	0.00339
22	C	0.448695	0.557604	0.00168
23	C	0.393235	0.530286	0.003391
24	C	0.365628	0.558056	0.004768
25	C	0.392429	0.779823	0.005133
26	C	0.448238	0.808832	0.004772
27	C	0.476009	0.864211	0.003405
28	C	0.448694	0.892355	0.00168
29	C	0.393235	0.864211	0.003395
30	C	0.365628	0.808832	0.004771
31	C	0.226475	0.613868	0.005135
32	C	0.197465	0.64067	0.004772
33	C	0.142088	0.613061	0.003408
34	C	0.113944	0.557604	0.00168
35	C	0.142086	0.530286	0.003406
36	C	0.197463	0.558056	0.004777
37	H	0.516275	0.883758	0.00278
38	H	0.469602	0.78999	0.005223
39	H	0.372517	0.883758	0.002792
40	H	0.325422	0.78999	0.005235
41	H	0.216308	0.680873	0.005236
42	H	0.122538	0.633776	0.00279
43	H	0.216309	0.536695	0.005231
44	H	0.122538	0.49002	0.002785
45	H	0.325423	0.536695	0.005226
46	H	0.372518	0.49002	0.002788
47	H	0.516275	0.633776	0.002792
48	H	0.469603	0.680877	0.005231
49	C	0.643252	0.281467	8.6e-05
50	N	0.61778	0.30952	0.000153
51	C	0.643254	0.363044	8.9e-05
52	N	0.696776	0.388516	0.000156
53	C	0.72483	0.363044	9.2e-05
54	N	0.696777	0.30952	0.000156
55	C	0.615128	0.391167	0.000672
56	C	0.559318	0.364365	0.001108
57	C	0.531553	0.391969	0.002641
58	C	0.558872	0.447425	0.00444
59	C	0.614326	0.474742	0.002629
60	C	0.641932	0.446976	0.001111
61	C	0.615129	0.225222	0.000672
62	C	0.559321	0.196214	0.001114
63	C	0.531554	0.140844	0.002641
64	C	0.558871	0.112707	0.004442
65	C	0.614326	0.140843	0.002642
66	C	0.641929	0.196213	0.001111
67	C	0.781075	0.391166	0.000672
68	C	0.810083	0.364364	0.001108
69	C	0.865451	0.391968	0.002637
70	C	0.893589	0.447425	0.00443
71	C	0.865456	0.474742	0.002613
72	C	0.810084	0.446976	0.001111
73	H	0.491286	0.121295	0.003271
74	H	0.537955	0.215056	0.000588
75	H	0.635045	0.121296	0.003277
76	H	0.682136	0.215056	0.000595
77	H	0.79124	0.324158	0.000592
78	H	0.885	0.37125	0.003273
79	H	0.791241	0.468341	0.000608
80	H	0.884999	0.515008	0.00329
81	H	0.682136	0.468341	0.000598
82	H	0.635042	0.515008	0.003278
83	H	0.491288	0.371251	0.003275
84	H	0.537954	0.324159	0.000595
85	C	0.531162	0.475132	0.006224
86	N	0.518475	0.487824	0.299517
87	C	0.491985	0.514316	0.293756
88	C	0.476406	0.529893	0.333264
89	N	0.489092	0.5172	0.039975
90	C	0.515585	0.490708	0.045735
91	O	0.522601	0.483693	0.090258
92	O	0.484984	0.521319	0.249228
93	C	0.549219	0.457084	0.10601
94	H	0.548803	0.457501	0.142505
95	H	0.590144	0.477217	0.095053
96	H	0.529085	0.416153	0.095057
97	C	0.458375	0.547921	0.233441
98	H	0.458811	0.547488	0.196947
99	H	0.478502	0.588856	0.24438
100	H	0.417443	0.527792	0.24438
101	C	0.531162	0.057289	0.006225
102	N	0.518473	0.03191	0.299518
103	C	0.491982	0.97893	0.293757
104	C	0.476406	0.947777	0.333264
105	N	0.489096	0.973154	0.039975
106	C	0.515586	0.026136	0.045735
107	O	0.522605	0.040166	0.090259
108	O	0.48498	0.964927	0.249228
109	C	0.549215	0.093394	0.106012
110	H	0.548797	0.092558	0.142507
111	H	0.529081	0.114187	0.095058
112	H	0.590143	0.11419	0.095058
113	C	0.458377	0.911713	0.233443
114	H	0.458813	0.912582	0.196949
115	H	0.417443	0.890907	0.244381
116	H	0.478507	0.890911	0.244384
117	C	0.949006	0.475132	0.00622
118	N	0.974388	0.487828	0.299514
119	C	0.980157	0.490705	0.045732
120	O	0.966122	0.483685	0.090255
121	C	0.912891	0.45708	0.106003
122	H	0.913722	0.457501	0.142498
123	H	0.892094	0.416153	0.09505
124	H	0.892104	0.477221	0.095043
125	C	0.09459	0.547925	0.233445
126	H	0.093723	0.547492	0.19695
127	H	0.115389	0.527792	0.244385
128	H	0.115398	0.588856	0.244387
129	C	0.364303	0.723571	0.338942
130	N	0.389774	0.695517	0.338885
131	C	0.364303	0.641992	0.338942
132	N	0.31078	0.616523	0.338885
133	C	0.282725	0.641992	0.338945
134	N	0.310779	0.695517	0.338889
135	C	0.392428	0.613868	0.338463
136	C	0.44824	0.64067	0.338101
137	C	0.476009	0.613061	0.336724
138	C	0.448695	0.557604	0.335012
139	C	0.393235	0.530286	0.336724
140	C	0.365628	0.558056	0.338101
141	C	0.392429	0.779823	0.338466
142	C	0.448238	0.808832	0.338105
143	C	0.476009	0.864211	0.336738
144	C	0.448694	0.892355	0.335012
145	C	0.393235	0.864211	0.336728
146	C	0.365628	0.808832	0.338105
147	C	0.226475	0.613868	0.33847
148	C	0.197465	0.64067	0.338105
149	C	0.142088	0.613061	0.336741
150	C	0.113944	0.557604	0.335012
151	C	0.142086	0.530286	0.336741
152	C	0.197463	0.558056	0.338111
153	H	0.516275	0.883758	0.336115
154	H	0.469602	0.78999	0.338557
155	H	0.372517	0.883758	0.336125
156	H	0.325422	0.78999	0.33857
157	H	0.216308	0.680873	0.33857
158	H	0.122538	0.633776	0.336125
159	H	0.216309	0.536695	0.338564
160	H	0.122538	0.49002	0.336118
161	H	0.325423	0.536695	0.33856
162	H	0.372518	0.49002	0.336121
163	H	0.516275	0.633776	0.336125
164	H	0.469603	0.680877	0.338564
165	C	0.643252	0.281467	0.333419
166	N	0.61778	0.30952	0.333486
167	C	0.643254	0.363044	0.333422
168	N	0.696776	0.388516	0.333488
169	C	0.72483	0.363044	0.333425
170	N	0.696777	0.30952	0.333487
171	C	0.615128	0.391167	0.334004
172	C	0.559318	0.364365	0.334439
173	C	0.531553	0.391969	0.335974
174	C	0.558872	0.447425	0.337773
175	C	0.614326	0.474742	0.335964
176	C	0.641932	0.446976	0.334443
177	C	0.615129	0.225222	0.334004
178	C	0.559321	0.196214	0.334446
179	C	0.531554	0.140844	0.335974
180	C	0.558871	0.112707	0.337776
181	C	0.614326	0.140843	0.335974
182	C	0.641929	0.196213	0.334442
183	C	0.781075	0.391166	0.334004
184	C	0.810083	0.364364	0.334441
185	C	0.865451	0.391968	0.335971
186	C	0.893589	0.447425	0.337763
187	C	0.865456	0.474742	0.335947
188	C	0.810084	0.446976	0.334444
189	H	0.491286	0.121295	0.336604
190	H	0.537955	0.215056	0.333922
191	H	0.635045	0.121296	0.33661
192	H	0.682136	0.215056	0.333929
193	H	0.79124	0.324158	0.333923
194	H	0.885	0.37125	0.336607
195	H	0.791241	0.468341	0.333942
196	H	0.884999	0.515008	0.336624
197	H	0.682136	0.468341	0.33393
198	H	0.635042	0.515008	0.336614
199	H	0.491288	0.371251	0.33661
200	H	0.537954	0.324159	0.333927
201	C	0.531162	0.475132	0.339559
202	N	0.518475	0.487824	0.632852
203	C	0.491985	0.514316	0.62709
204	C	0.476406	0.529893	0.666598
205	N	0.489092	0.5172	0.373308
206	C	0.515585	0.490708	0.37907
207	O	0.522601	0.483693	0.423593
208	O	0.484984	0.521319	0.582563
209	C	0.549219	0.457084	0.439342
210	H	0.548803	0.457501	0.475838
211	H	0.590144	0.477217	0.428387
212	H	0.529085	0.416153	0.42839
213	C	0.458375	0.547921	0.566774
214	H	0.458811	0.547488	0.530281
215	H	0.478502	0.588856	0.577716
216	H	0.417443	0.527792	0.577712
217	C	0.531162	0.057289	0.339559
218	N	0.518473	0.03191	0.632852
219	C	0.491982	0.97893	0.62709
220	C	0.476406	0.947777	0.666598
221	N	0.489096	0.973154	0.373308
222	C	0.515586	0.026136	0.37907
223	O	0.522605	0.040166	0.423593
224	O	0.48498	0.964927	0.582563
225	C	0.549215	0.093394	0.439345
226	H	0.548797	0.092558	0.475842
227	H	0.529081	0.114187	0.42839
228	H	0.590143	0.11419	0.42839
229	C	0.458377	0.911713	0.566777
230	H	0.458813	0.912582	0.530281
231	H	0.417443	0.890907	0.577716
232	H	0.478507	0.890911	0.577719
233	C	0.949006	0.475132	0.339552
234	N	0.974388	0.487828	0.632849
235	C	0.980157	0.490705	0.379067
236	O	0.966122	0.483685	0.42359
237	C	0.912891	0.45708	0.439335
238	H	0.913722	0.457501	0.475832
239	H	0.892094	0.416153	0.428384
240	H	0.892104	0.477221	0.428377
241	C	0.09459	0.547925	0.566777
242	H	0.093723	0.547492	0.530284
243	H	0.115389	0.527792	0.577719
244	H	0.115398	0.588856	0.577719
245	C	0.364303	0.723571	0.672276
246	N	0.389774	0.695517	0.672219
247	C	0.364303	0.641992	0.672276
248	N	0.31078	0.616523	0.672219
249	C	0.282725	0.641992	0.672279
250	N	0.310779	0.695517	0.672223
251	C	0.392428	0.613868	0.671797
252	C	0.44824	0.64067	0.671432
253	C	0.476009	0.613061	0.670058
254	C	0.448695	0.557604	0.668346
255	C	0.393235	0.530286	0.670058
256	C	0.365628	0.558056	0.671435
257	C	0.392429	0.779823	0.6718
258	C	0.448238	0.808832	0.671439
259	C	0.476009	0.864211	0.670072
260	C	0.448694	0.892355	0.668346
261	C	0.393235	0.864211	0.670062
262	C	0.365628	0.808832	0.671439
263	C	0.226475	0.613868	0.671804
264	C	0.197465	0.64067	0.671439
265	C	0.142088	0.613061	0.670075
266	C	0.113944	0.557604	0.668346
267	C	0.142086	0.530286	0.670075
268	C	0.197463	0.558056	0.671445
269	H	0.516275	0.883758	0.669449
270	H	0.469602	0.78999	0.671891
271	H	0.372517	0.883758	0.669459
272	H	0.325422	0.78999	0.671904
273	H	0.216308	0.680873	0.671904
274	H	0.122538	0.633776	0.669459
275	H	0.216309	0.536695	0.671898
276	H	0.122538	0.49002	0.669452
277	H	0.325423	0.536695	0.671894
278	H	0.372518	0.49002	0.669455
279	H	0.516275	0.633776	0.669459
280	H	0.469603	0.680877	0.671898
281	C	0.643252	0.281467	0.666752
282	N	0.61778	0.30952	0.666819
283	C	0.643254	0.363044	0.666755
284	N	0.696776	0.388516	0.666822
285	C	0.72483	0.363044	0.666758
286	N	0.696777	0.30952	0.666822
287	C	0.615128	0.391167	0.667338
288	C	0.559318	0.364365	0.667774
289	C	0.531553	0.391969	0.669308
290	C	0.558872	0.447425	0.671107
291	C	0.614326	0.474742	0.669298
292	C	0.641932	0.446976	0.667777
293	C	0.615129	0.225222	0.667338
294	C	0.559321	0.196214	0.66778
295	C	0.531554	0.140844	0.669308
296	C	0.558871	0.112707	0.67111
297	C	0.614326	0.140843	0.669308
298	C	0.641929	0.196213	0.667777
299	C	0.781075	0.391166	0.667338
300	C	0.810083	0.364364	0.667774
301	C	0.865451	0.391968	0.669305
302	C	0.893589	0.447425	0.671097
303	C	0.865456	0.474742	0.669281
304	C	0.810084	0.446976	0.667777
305	H	0.491286	0.121295	0.669938
306	H	0.537955	0.215056	0.667254
307	H	0.635045	0.121296	0.669944
308	H	0.682136	0.215056	0.667261
309	H	0.79124	0.324158	0.667258
310	H	0.885	0.37125	0.669941
311	H	0.791241	0.468341	0.667274
312	H	0.884999	0.515008	0.669958
313	H	0.682136	0.468341	0.667264
314	H	0.635042	0.515008	0.669944
315	H	0.491288	0.371251	0.669944
316	H	0.537954	0.324159	0.667261
317	C	0.531162	0.475132	0.672893
318	N	0.518475	0.487824	0.966186
319	C	0.491985	0.514316	0.960424
320	C	0.476406	0.529893	0.999932
321	N	0.489092	0.5172	0.706642
322	C	0.515585	0.490708	0.712401
323	O	0.522601	0.483693	0.756927
324	O	0.484984	0.521319	0.915894
325	C	0.549219	0.457084	0.772676
326	H	0.548803	0.457501	0.809172
327	H	0.590144	0.477217	0.761721
328	H	0.529085	0.416153	0.761724
329	C	0.458375	0.547921	0.900108
330	H	0.458811	0.547488	0.863615
331	H	0.478502	0.588856	0.911046
332	H	0.417443	0.527792	0.911046
333	C	0.531162	0.057289	0.672893
334	N	0.518473	0.03191	0.966186
335	C	0.491982	0.97893	0.960424
336	C	0.476406	0.947777	0.999932
337	N	0.489096	0.973154	0.706642
338	C	0.515586	0.026136	0.712404
339	O	0.522605	0.040166	0.756927
340	O	0.48498	0.964927	0.915897
341	C	0.549215	0.093394	0.772679
342	H	0.548797	0.092558	0.809176
343	H	0.529081	0.114187	0.761724
344	H	0.590143	0.11419	0.761724
345	C	0.458377	0.911713	0.900111
346	H	0.458813	0.912582	0.863615
347	H	0.417443	0.890907	0.91105
348	H	0.478507	0.890911	0.911053
349	C	0.949006	0.475132	0.672886
350	N	0.974388	0.487828	0.966183
351	C	0.980157	0.490705	0.712401
352	O	0.966122	0.483685	0.756924
353	C	0.912891	0.45708	0.772669
354	H	0.913722	0.457501	0.809166
355	H	0.892094	0.416153	0.761718
356	H	0.892104	0.477221	0.761711
357	C	0.09459	0.547925	0.900111
358	H	0.093723	0.547492	0.863618
359	H	0.115389	0.527792	0.911053
360	H	0.115398	0.588856	0.911053
