data_C189H126N18O9_2018-02-15_10:41:40
#******************************************
#
# CIF file created by Zeo++
# Zeo++ is an open source package to
# analyze microporous materials
#
#*******************************************

_cell_length_a		29.929   
_cell_length_b		29.9288   
_cell_length_c		29.8164   
_cell_angle_alpha		90   
_cell_angle_beta		90   
_cell_angle_gamma		120   

_symmetry_space_group_name_H-M		'P1'
_symmetry_Int_Tables_number		1
_symmetry_cell_setting		Monoclinic

loop_
_symmetry_equiv_pos_as_xyz
'+x,+y,+z'

loop_
_atom_site_label
_atom_site_type_symbol
_atom_site_fract_x
_atom_site_fract_y
_atom_site_fract_z
1	C	0.030713	0.522456	0.04324
2	C	0.059507	0.530524	0.003239
3	C	0.030363	0.509423	0.296993
4	O	0.056235	0.544054	0.0827
5	H	0.048269	0.512984	0.266927
6	C	0.032968	0.516445	0.123455
7	H	0.059675	0.53596	0.151016
8	C	0.030713	0.522456	0.376574
9	C	0.059507	0.530524	0.336573
10	C	0.030363	0.509423	0.630327
11	O	0.056235	0.544054	0.416033
12	H	0.048269	0.512984	0.60026
13	C	0.032968	0.516445	0.456789
14	H	0.059675	0.53596	0.484351
15	C	0.030713	0.522456	0.709908
16	C	0.059507	0.530524	0.669906
17	C	0.030363	0.509423	0.963661
18	O	0.056235	0.544054	0.749366
19	H	0.048269	0.512984	0.933593
20	C	0.032968	0.516445	0.790122
21	H	0.059675	0.53596	0.817684
22	H	0.025379	0.476752	0.121793
23	H	0.025379	0.476752	0.455125
24	H	0.025379	0.476752	0.788458
25	H	0.997138	0.516368	0.130489
26	H	0.997138	0.516368	0.463822
27	H	0.997138	0.516368	0.797155
28	C	0.282199	0.641808	0.000754
29	C	0.310804	0.615708	0.000841
30	C	0.365471	0.64177	0.003658
31	C	0.391228	0.696455	0.006385
32	C	0.365273	0.725287	0.004825
33	C	0.310553	0.696529	0.001982
34	C	0.393667	0.613987	0.003925
35	C	0.373484	0.564707	0.02417
36	C	0.400767	0.537526	0.024073
37	C	0.45035	0.558326	0.004429
38	C	0.470524	0.607444	0.983975
39	C	0.442944	0.634343	0.983596
40	C	0.226449	0.61357	0.000412
41	C	0.198168	0.569533	0.027978
42	C	0.143721	0.542592	0.029085
43	C	0.114874	0.558009	0.002163
44	C	0.142788	0.601421	0.974034
45	C	0.197298	0.628872	0.973558
46	C	0.393512	0.781308	0.00608
47	C	0.373354	0.810201	0.026785
48	C	0.400642	0.864694	0.027167
49	C	0.450204	0.893754	0.007517
50	C	0.470496	0.865003	0.986903
51	C	0.442909	0.810549	0.986011
52	H	0.125172	0.511086	0.04959
53	H	0.217127	0.557222	0.048657
54	H	0.123507	0.614111	0.954159
55	H	0.215629	0.659996	0.952643
56	H	0.338287	0.79179	0.042451
57	H	0.383061	0.883005	0.041373
58	H	0.459346	0.792446	0.969466
59	H	0.506239	0.883564	0.972367
60	H	0.459315	0.669109	0.967414
61	H	0.506227	0.624705	0.969359
62	H	0.383256	0.50153	0.038077
63	H	0.338467	0.547928	0.039943
64	H	0.291035	0.576432	0.997545
65	H	0.290511	0.7159	0.001069
66	H	0.430292	0.715939	0.011029
67	C	0.728085	0.365024	0.002237
68	C	0.69976	0.391429	0.001895
69	C	0.645042	0.365057	0.001757
70	C	0.618677	0.310349	0.002307
71	C	0.644965	0.281933	0.002337
72	C	0.699687	0.310286	0.002069
73	C	0.617077	0.392652	0.001381
74	C	0.630089	0.43434	0.971653
75	C	0.602178	0.460926	0.97119
76	C	0.560683	0.447909	0.001163
77	C	0.547964	0.406426	0.031079
78	C	0.575103	0.379136	0.030861
79	C	0.783677	0.392737	0.002723
80	C	0.812125	0.434637	0.032335
81	C	0.866615	0.46137	0.03302
82	C	0.89524	0.448507	0.003125
83	C	0.866863	0.406982	0.973212
84	C	0.812404	0.379296	0.973464
85	C	0.61701	0.226336	0.002864
86	C	0.630514	0.197185	0.974198
87	C	0.602725	0.142703	0.974457
88	C	0.560783	0.114637	0.004122
89	C	0.547613	0.143835	0.033077
90	C	0.574663	0.198283	0.032119
91	H	0.8853	0.491383	0.055019
92	H	0.793249	0.445494	0.054551
93	H	0.885709	0.395731	0.951322
94	H	0.793767	0.349686	0.951087
95	H	0.660365	0.215516	0.951996
96	H	0.614207	0.123647	0.953046
97	H	0.563687	0.217416	0.053943
98	H	0.517415	0.125646	0.054964
99	H	0.564522	0.349756	0.05342
100	H	0.518133	0.395075	0.05327
101	H	0.613326	0.490835	0.949122
102	H	0.659699	0.445239	0.949293
103	H	0.719508	0.430933	0.001791
104	H	0.719398	0.290527	0.003479
105	H	0.57919	0.290621	0.001126
106	C	0.480151	0.501865	0.041654
107	C	0.478476	0.53067	0.004405
108	C	0.506981	0.530651	0.299732
109	N	0.532859	0.504037	0.299535
110	C	0.533145	0.475707	0.001777
111	N	0.506261	0.475491	0.038621
112	O	0.45546	0.499068	0.081156
113	H	0.507791	0.549784	0.271095
114	C	0.488859	0.520018	0.119439
115	H	0.507149	0.497452	0.127629
116	H	0.46551	0.518614	0.148051
117	H	0.51856	0.560382	0.113904
118	C	0.47926	0.980126	0.044449
119	C	0.478212	0.94957	0.007493
120	C	0.507441	0.978186	0.303143
121	N	0.533346	0.030661	0.303036
122	C	0.53313	0.059285	0.005069
123	N	0.505591	0.03262	0.041698
124	O	0.454599	0.958984	0.084032
125	H	0.508748	0.959967	0.274622
126	C	0.488311	0.958636	0.118214
127	H	0.506383	0.93651	0.107811
128	H	0.465247	0.940484	0.148082
129	H	0.518201	0.997936	0.127174
130	N	0.977911	0.482953	0.298127
131	C	0.950461	0.476147	0.003081
132	N	0.978018	0.496853	0.041307
133	C	0.282199	0.641808	0.334086
134	C	0.310804	0.615708	0.334174
135	C	0.365471	0.64177	0.336992
136	C	0.391228	0.696455	0.339719
137	C	0.365273	0.725287	0.338159
138	C	0.310553	0.696529	0.335315
139	C	0.393667	0.613987	0.337257
140	C	0.373484	0.564707	0.357504
141	C	0.400767	0.537526	0.357407
142	C	0.45035	0.558326	0.337764
143	C	0.470524	0.607444	0.317307
144	C	0.442944	0.634343	0.316929
145	C	0.226449	0.61357	0.333746
146	C	0.198168	0.569533	0.361311
147	C	0.143721	0.542592	0.362418
148	C	0.114874	0.558009	0.335496
149	C	0.142788	0.601421	0.307368
150	C	0.197298	0.628872	0.306891
151	C	0.393512	0.781308	0.339414
152	C	0.373354	0.810201	0.360117
153	C	0.400642	0.864694	0.360499
154	C	0.450204	0.893754	0.340849
155	C	0.470496	0.865003	0.320235
156	C	0.442909	0.810549	0.319344
157	H	0.125172	0.511086	0.382923
158	H	0.217127	0.557222	0.381991
159	H	0.123507	0.614111	0.287491
160	H	0.215629	0.659996	0.285977
161	H	0.338287	0.79179	0.375783
162	H	0.383061	0.883005	0.374706
163	H	0.459346	0.792446	0.302798
164	H	0.506239	0.883564	0.3057
165	H	0.459315	0.669109	0.300745
166	H	0.506227	0.624705	0.302693
167	H	0.383256	0.50153	0.37141
168	H	0.338467	0.547928	0.373278
169	H	0.291035	0.576432	0.330877
170	H	0.290511	0.7159	0.334401
171	H	0.430292	0.715939	0.344361
172	C	0.728085	0.365024	0.33557
173	C	0.69976	0.391429	0.335227
174	C	0.645042	0.365057	0.33509
175	C	0.618677	0.310349	0.335641
176	C	0.644965	0.281933	0.335671
177	C	0.699687	0.310286	0.335399
178	C	0.617077	0.392652	0.334715
179	C	0.630089	0.43434	0.304985
180	C	0.602178	0.460926	0.304522
181	C	0.560683	0.447909	0.334497
182	C	0.547964	0.406426	0.364413
183	C	0.575103	0.379136	0.364195
184	C	0.783677	0.392737	0.336057
185	C	0.812125	0.434637	0.365668
186	C	0.866615	0.46137	0.366352
187	C	0.89524	0.448507	0.336459
188	C	0.866863	0.406982	0.306545
189	C	0.812404	0.379296	0.306796
190	C	0.61701	0.226336	0.336197
191	C	0.630514	0.197185	0.307532
192	C	0.602725	0.142703	0.30779
193	C	0.560783	0.114637	0.337455
194	C	0.547613	0.143835	0.366409
195	C	0.574663	0.198283	0.365453
196	H	0.8853	0.491383	0.388353
197	H	0.793249	0.445494	0.387884
198	H	0.885709	0.395731	0.284656
199	H	0.793767	0.349686	0.284419
200	H	0.660365	0.215516	0.285329
201	H	0.614207	0.123647	0.286378
202	H	0.563687	0.217416	0.387277
203	H	0.517415	0.125646	0.388296
204	H	0.564522	0.349756	0.386753
205	H	0.518133	0.395075	0.386603
206	H	0.613326	0.490835	0.282456
207	H	0.659699	0.445239	0.282626
208	H	0.719508	0.430933	0.335123
209	H	0.719398	0.290527	0.336811
210	H	0.57919	0.290621	0.334458
211	C	0.480151	0.501865	0.374988
212	C	0.478476	0.53067	0.337737
213	C	0.506981	0.530651	0.633064
214	N	0.532859	0.504037	0.63287
215	C	0.533145	0.475707	0.335111
216	N	0.506261	0.475491	0.371953
217	O	0.45546	0.499068	0.41449
218	H	0.507791	0.549784	0.604429
219	C	0.488859	0.520018	0.452774
220	H	0.507149	0.497452	0.460961
221	H	0.46551	0.518614	0.481386
222	H	0.51856	0.560382	0.447237
223	C	0.47926	0.980126	0.377782
224	C	0.478212	0.94957	0.340826
225	C	0.507441	0.978186	0.636478
226	N	0.533346	0.030661	0.636371
227	C	0.53313	0.059285	0.338404
228	N	0.505591	0.03262	0.375032
229	O	0.454599	0.958984	0.417367
230	H	0.508748	0.959967	0.607954
231	C	0.488311	0.958636	0.451547
232	H	0.506383	0.93651	0.441146
233	H	0.465247	0.940484	0.481416
234	H	0.518201	0.997936	0.460508
235	N	0.977911	0.482953	0.631461
236	C	0.950461	0.476147	0.336415
237	N	0.978018	0.496853	0.374639
238	C	0.282199	0.641808	0.667418
239	C	0.310804	0.615708	0.667508
240	C	0.365471	0.64177	0.670325
241	C	0.391228	0.696455	0.673052
242	C	0.365273	0.725287	0.671493
243	C	0.310553	0.696529	0.668649
244	C	0.393667	0.613987	0.67059
245	C	0.373484	0.564707	0.690838
246	C	0.400767	0.537526	0.69074
247	C	0.45035	0.558326	0.671097
248	C	0.470524	0.607444	0.650642
249	C	0.442944	0.634343	0.650263
250	C	0.226449	0.61357	0.667079
251	C	0.198168	0.569533	0.694644
252	C	0.143721	0.542592	0.695751
253	C	0.114874	0.558009	0.66883
254	C	0.142788	0.601421	0.640701
255	C	0.197298	0.628872	0.640225
256	C	0.393512	0.781308	0.672747
257	C	0.373354	0.810201	0.69345
258	C	0.400642	0.864694	0.693833
259	C	0.450204	0.893754	0.674182
260	C	0.470496	0.865003	0.65357
261	C	0.442909	0.810549	0.652677
262	H	0.125172	0.511086	0.716257
263	H	0.217127	0.557222	0.715324
264	H	0.123507	0.614111	0.620826
265	H	0.215629	0.659996	0.61931
266	H	0.338287	0.79179	0.709116
267	H	0.383061	0.883005	0.70804
268	H	0.459346	0.792446	0.636133
269	H	0.506239	0.883564	0.639034
270	H	0.459315	0.669109	0.634077
271	H	0.506227	0.624705	0.636026
272	H	0.383256	0.50153	0.704743
273	H	0.338467	0.547928	0.706611
274	H	0.291035	0.576432	0.664211
275	H	0.290511	0.7159	0.667736
276	H	0.430292	0.715939	0.677697
277	C	0.728085	0.365024	0.668903
278	C	0.69976	0.391429	0.668561
279	C	0.645042	0.365057	0.668424
280	C	0.618677	0.310349	0.668974
281	C	0.644965	0.281933	0.669004
282	C	0.699687	0.310286	0.668732
283	C	0.617077	0.392652	0.668048
284	C	0.630089	0.43434	0.63832
285	C	0.602178	0.460926	0.637857
286	C	0.560683	0.447909	0.66783
287	C	0.547964	0.406426	0.697747
288	C	0.575103	0.379136	0.697529
289	C	0.783677	0.392737	0.66939
290	C	0.812125	0.434637	0.699001
291	C	0.866615	0.46137	0.699685
292	C	0.89524	0.448507	0.669792
293	C	0.866863	0.406982	0.639879
294	C	0.812404	0.379296	0.640131
295	C	0.61701	0.226336	0.669531
296	C	0.630514	0.197185	0.640865
297	C	0.602725	0.142703	0.641123
298	C	0.560783	0.114637	0.670788
299	C	0.547613	0.143835	0.699745
300	C	0.574663	0.198283	0.698786
301	H	0.8853	0.491383	0.721686
302	H	0.793249	0.445494	0.721217
303	H	0.885709	0.395731	0.617989
304	H	0.793767	0.349686	0.617754
305	H	0.660365	0.215516	0.618663
306	H	0.614207	0.123647	0.619712
307	H	0.563687	0.217416	0.72061
308	H	0.517415	0.125646	0.721629
309	H	0.564522	0.349756	0.720087
310	H	0.518133	0.395075	0.719936
311	H	0.613326	0.490835	0.615788
312	H	0.659699	0.445239	0.615959
313	H	0.719508	0.430933	0.668457
314	H	0.719398	0.290527	0.670144
315	H	0.57919	0.290621	0.667793
316	C	0.480151	0.501865	0.708321
317	C	0.478476	0.53067	0.671073
318	C	0.506981	0.530651	0.966397
319	N	0.532859	0.504037	0.966203
320	C	0.533145	0.475707	0.668444
321	N	0.506261	0.475491	0.705289
322	O	0.45546	0.499068	0.747823
323	H	0.507791	0.549784	0.937762
324	C	0.488859	0.520018	0.786107
325	H	0.507149	0.497452	0.794297
326	H	0.46551	0.518614	0.814719
327	H	0.51856	0.560382	0.78057
328	C	0.47926	0.980126	0.711115
329	C	0.478212	0.94957	0.674159
330	C	0.507441	0.978186	0.969812
331	N	0.533346	0.030661	0.969704
332	C	0.53313	0.059285	0.671737
333	N	0.505591	0.03262	0.708365
334	O	0.454599	0.958984	0.750701
335	H	0.508748	0.959967	0.941287
336	C	0.488311	0.958636	0.78488
337	H	0.506383	0.93651	0.77448
338	H	0.465247	0.940484	0.814749
339	H	0.518201	0.997936	0.793841
340	N	0.977911	0.482953	0.964794
341	C	0.950461	0.476147	0.669749
342	N	0.978018	0.496853	0.707976
