data_C180H162N36_2018-02-15_10:34:05
#******************************************
#
# CIF file created by Zeo++
# Zeo++ is an open source package to
# analyze microporous materials
#
#*******************************************

_cell_length_a		29.0268   
_cell_length_b		29.0268   
_cell_length_c		30.0134   
_cell_angle_alpha		90   
_cell_angle_beta		90   
_cell_angle_gamma		120   

_symmetry_space_group_name_H-M		'P1'
_symmetry_Int_Tables_number		1
_symmetry_cell_setting		Monoclinic

loop_
_symmetry_equiv_pos_as_xyz
'+x,+y,+z'

loop_
_atom_site_label
_atom_site_type_symbol
_atom_site_fract_x
_atom_site_fract_y
_atom_site_fract_z
1	C	0.358061	0.635073	0.06413
2	C	0.302011	0.610743	0.064602
3	C	0.276569	0.64137	0.064091
4	C	0.308291	0.697421	0.064603
5	C	0.364362	0.722864	0.064121
6	C	0.388692	0.691143	0.064674
7	H	0.290325	0.72004	0.063642
8	H	0.429276	0.709112	0.063673
9	H	0.279394	0.570159	0.063638
10	N	0.384295	0.604911	0.06107
11	H	0.359294	0.565974	0.070067
12	N	0.394532	0.779261	0.061073
13	H	0.43347	0.793192	0.070068
14	N	0.220172	0.615142	0.061043
15	H	0.206242	0.640152	0.070032
16	C	0.642659	0.365562	0.945454
17	C	0.698596	0.388772	0.945168
18	C	0.722441	0.356771	0.945451
19	C	0.689714	0.300832	0.945178
20	C	0.633866	0.276986	0.945458
21	C	0.610657	0.309715	0.945181
22	H	0.706717	0.277319	0.944994
23	H	0.57014	0.292712	0.944998
24	H	0.722109	0.429288	0.944981
25	N	0.617175	0.396236	0.945674
26	H	0.628907	0.42025	0.917966
27	N	0.603194	0.220831	0.945684
28	H	0.57917	0.208542	0.917986
29	N	0.778597	0.382253	0.945671
30	H	0.790883	0.370513	0.91797
31	C	0.436194	0.576925	0.347158
32	C	0.482257	0.591393	0.040137
33	N	0.509104	0.564581	0.034528
34	C	0.49539	0.524451	0.338276
35	C	0.450139	0.508658	0.310881
36	C	0.42075	0.535009	0.316056
37	H	0.388314	0.524232	0.296097
38	C	0.526281	0.499584	0.00042
39	C	0.591066	0.453033	0.990957
40	N	0.569193	0.513599	0.026828
41	C	0.601372	0.492173	0.024082
42	C	0.54568	0.436707	0.296915
43	C	0.512833	0.459441	0.301222
44	C	0.467626	0.44376	0.274104
45	C	0.436364	0.467998	0.279045
46	H	0.457256	0.414804	0.250463
47	H	0.403978	0.456251	0.258831
48	H	0.535933	0.407611	0.273562
49	C	0.504088	0.635124	0.073199
50	H	0.512618	0.672387	0.057309
51	H	0.541014	0.640769	0.087865
52	H	0.475649	0.62615	0.100158
53	C	0.645865	0.511836	0.056342
54	H	0.645301	0.540586	0.079515
55	H	0.683835	0.531388	0.038742
56	H	0.642967	0.478707	0.075769
57	C	0.625726	0.428771	0.986439
58	H	0.618967	0.403995	0.015911
59	H	0.667314	0.460623	0.986652
60	C	0.406158	0.6062	0.349267
61	H	0.373389	0.590184	0.325195
62	H	0.433636	0.647269	0.339355
63	C	0.422535	0.859164	0.347175
64	C	0.408075	0.890758	0.040165
65	N	0.434888	0.944418	0.034558
66	C	0.475011	0.970832	0.338299
67	C	0.4908	0.941379	0.310897
68	C	0.464447	0.885638	0.31607
69	H	0.475215	0.863978	0.296102
70	C	0.499878	0.026593	0.000445
71	C	0.54642	0.137929	0.99098
72	N	0.48587	0.05549	0.026861
73	C	0.507294	0.109094	0.024113
74	C	0.56274	0.108867	0.296932
75	C	0.540011	0.053287	0.30124
76	C	0.555686	0.023762	0.274115
77	C	0.53145	0.968262	0.279054
78	H	0.584633	0.042349	0.250468
79	H	0.54319	0.947624	0.258834
80	H	0.591828	0.128217	0.273573
81	C	0.364353	0.868859	0.073234
82	H	0.327088	0.840129	0.057348
83	H	0.358716	0.900142	0.087907
84	H	0.373331	0.84939	0.100187
85	C	0.487635	0.133923	0.056381
86	H	0.458896	0.104612	0.07956
87	H	0.468077	0.15234	0.038789
88	H	0.520769	0.164156	0.075801
89	C	0.570674	0.196848	0.986459
90	H	0.595461	0.214872	0.015925
91	H	0.538824	0.206583	0.986682
92	C	0.393253	0.799851	0.349274
93	H	0.409264	0.7831	0.325198
94	H	0.352187	0.786274	0.339362
95	C	0.140272	0.563237	0.347145
96	C	0.108676	0.517187	0.040139
97	N	0.055017	0.490343	0.034534
98	C	0.028602	0.504051	0.338272
99	C	0.058059	0.54929	0.310866
100	C	0.113802	0.578676	0.316037
101	H	0.135463	0.611101	0.296067
102	C	0.972842	0.473162	0.000421
103	C	0.861501	0.408375	0.990964
104	N	0.943944	0.430262	0.02684
105	C	0.890338	0.398084	0.024096
106	C	0.890567	0.453753	0.296909
107	C	0.946147	0.4866	0.301214
108	C	0.975676	0.531794	0.274084
109	C	0.031176	0.563054	0.279022
110	H	0.957089	0.542157	0.250437
111	H	0.051818	0.595431	0.258799
112	H	0.871217	0.463491	0.273549
113	C	0.130575	0.495367	0.073212
114	H	0.159298	0.486822	0.057328
115	H	0.099291	0.458451	0.087888
116	H	0.150044	0.523814	0.100162
117	C	0.865506	0.353602	0.056367
118	H	0.894817	0.354174	0.079546
119	H	0.847086	0.315624	0.038778
120	H	0.835276	0.35651	0.075788
121	C	0.802582	0.373717	0.986446
122	H	0.784563	0.380486	0.015911
123	H	0.792844	0.332129	0.986672
124	C	0.199582	0.593263	0.349244
125	H	0.216337	0.626022	0.325165
126	H	0.213162	0.565775	0.339342
127	C	0.358061	0.635073	0.397462
128	C	0.302011	0.610743	0.397936
129	C	0.276569	0.64137	0.397426
130	C	0.308291	0.697421	0.397936
131	C	0.364362	0.722864	0.397456
132	C	0.388692	0.691143	0.398005
133	H	0.290325	0.72004	0.396976
134	H	0.429276	0.709112	0.397006
135	H	0.279394	0.570159	0.396969
136	N	0.384295	0.604911	0.394404
137	H	0.359294	0.565974	0.4034
138	N	0.394532	0.779261	0.394407
139	H	0.43347	0.793192	0.403403
140	N	0.220172	0.615142	0.394377
141	H	0.206242	0.640152	0.403366
142	C	0.642659	0.365562	0.278786
143	C	0.698596	0.388772	0.278502
144	C	0.722441	0.356771	0.278783
145	C	0.689714	0.300832	0.278512
146	C	0.633866	0.276986	0.278792
147	C	0.610657	0.309715	0.278515
148	H	0.706717	0.277319	0.278327
149	H	0.57014	0.292712	0.278331
150	H	0.722109	0.429288	0.278315
151	N	0.617175	0.396236	0.279007
152	H	0.628907	0.42025	0.2513
153	N	0.603194	0.220831	0.279019
154	H	0.57917	0.208542	0.251318
155	N	0.778597	0.382253	0.279005
156	H	0.790883	0.370513	0.251305
157	C	0.436194	0.576925	0.680493
158	C	0.482257	0.591393	0.37347
159	N	0.509104	0.564581	0.367862
160	C	0.49539	0.524451	0.671607
161	C	0.450139	0.508658	0.644215
162	C	0.42075	0.535009	0.64939
163	H	0.388314	0.524232	0.629429
164	C	0.526281	0.499584	0.333754
165	C	0.591066	0.453033	0.324291
166	N	0.569193	0.513599	0.360162
167	C	0.601372	0.492173	0.357414
168	C	0.54568	0.436707	0.630248
169	C	0.512833	0.459441	0.634556
170	C	0.467626	0.44376	0.607439
171	C	0.436364	0.467998	0.61238
172	H	0.457256	0.414804	0.583796
173	H	0.403978	0.456251	0.592165
174	H	0.535933	0.407611	0.606895
175	C	0.504088	0.635124	0.406532
176	H	0.512618	0.672387	0.390642
177	H	0.541014	0.640769	0.421198
178	H	0.475649	0.62615	0.433493
179	C	0.645865	0.511836	0.389676
180	H	0.645301	0.540586	0.412849
181	H	0.683835	0.531388	0.372077
182	H	0.642967	0.478707	0.409104
183	C	0.625726	0.428771	0.319773
184	H	0.618967	0.403995	0.349244
185	H	0.667314	0.460623	0.319987
186	C	0.406158	0.6062	0.682598
187	H	0.373389	0.590184	0.658529
188	H	0.433636	0.647269	0.672689
189	C	0.422535	0.859164	0.680509
190	C	0.408075	0.890758	0.3735
191	N	0.434888	0.944418	0.367892
192	C	0.475011	0.970832	0.671633
193	C	0.4908	0.941379	0.644232
194	C	0.464447	0.885638	0.649403
195	H	0.475215	0.863978	0.629435
196	C	0.499878	0.026593	0.333778
197	C	0.54642	0.137929	0.324314
198	N	0.48587	0.05549	0.360192
199	C	0.507294	0.109094	0.357447
200	C	0.56274	0.108867	0.630265
201	C	0.540011	0.053287	0.634573
202	C	0.555686	0.023762	0.607449
203	C	0.53145	0.968262	0.612386
204	H	0.584633	0.042349	0.583802
205	H	0.54319	0.947624	0.592169
206	H	0.591828	0.128217	0.606905
207	C	0.364353	0.868859	0.406568
208	H	0.327088	0.840129	0.390682
209	H	0.358716	0.900142	0.421242
210	H	0.373331	0.84939	0.43352
211	C	0.487635	0.133923	0.389716
212	H	0.458896	0.104612	0.412892
213	H	0.468077	0.15234	0.37212
214	H	0.520769	0.164156	0.409134
215	C	0.570674	0.196848	0.319793
216	H	0.595461	0.214872	0.349257
217	H	0.538824	0.206583	0.320017
218	C	0.393253	0.799851	0.682608
219	H	0.409264	0.7831	0.658532
220	H	0.352187	0.786274	0.672696
221	C	0.140272	0.563237	0.680479
222	C	0.108676	0.517187	0.373473
223	N	0.055017	0.490343	0.367866
224	C	0.028602	0.504051	0.671607
225	C	0.058059	0.54929	0.644199
226	C	0.113802	0.578676	0.64937
227	H	0.135463	0.611101	0.629402
228	C	0.972842	0.473162	0.333754
229	C	0.861501	0.408375	0.324296
230	N	0.943944	0.430262	0.360172
231	C	0.890338	0.398084	0.35743
232	C	0.890567	0.453753	0.630242
233	C	0.946147	0.4866	0.634546
234	C	0.975676	0.531794	0.607419
235	C	0.031176	0.563054	0.612356
236	H	0.957089	0.542157	0.583769
237	H	0.051818	0.595431	0.592132
238	H	0.871217	0.463491	0.606882
239	C	0.130575	0.495367	0.406545
240	H	0.159298	0.486822	0.390662
241	H	0.099291	0.458451	0.421222
242	H	0.150044	0.523814	0.433496
243	C	0.865506	0.353602	0.389703
244	H	0.894817	0.354174	0.412879
245	H	0.847086	0.315624	0.37211
246	H	0.835276	0.35651	0.409121
247	C	0.802582	0.373717	0.319779
248	H	0.784563	0.380486	0.349244
249	H	0.792844	0.332129	0.320005
250	C	0.199582	0.593263	0.682578
251	H	0.216337	0.626022	0.658499
252	H	0.213162	0.565775	0.672673
253	C	0.358061	0.635073	0.730797
254	C	0.302011	0.610743	0.73127
255	C	0.276569	0.64137	0.730757
256	C	0.308291	0.697421	0.73127
257	C	0.364362	0.722864	0.730787
258	C	0.388692	0.691143	0.73134
259	H	0.290325	0.72004	0.730307
260	H	0.429276	0.709112	0.73034
261	H	0.279394	0.570159	0.730304
262	N	0.384295	0.604911	0.727738
263	H	0.359294	0.565974	0.736734
264	N	0.394532	0.779261	0.727741
265	H	0.43347	0.793192	0.736734
266	N	0.220172	0.615142	0.727711
267	H	0.206242	0.640152	0.736697
268	C	0.642659	0.365562	0.61212
269	C	0.698596	0.388772	0.611837
270	C	0.722441	0.356771	0.612116
271	C	0.689714	0.300832	0.611847
272	C	0.633866	0.276986	0.612126
273	C	0.610657	0.309715	0.61185
274	H	0.706717	0.277319	0.61166
275	H	0.57014	0.292712	0.611663
276	H	0.722109	0.429288	0.61165
277	N	0.617175	0.396236	0.61234
278	H	0.628907	0.42025	0.584632
279	N	0.603194	0.220831	0.612353
280	H	0.57917	0.208542	0.584652
281	N	0.778597	0.382253	0.61234
282	H	0.790883	0.370513	0.584639
283	C	0.436194	0.576925	0.013824
284	C	0.482257	0.591393	0.706804
285	N	0.509104	0.564581	0.701193
286	C	0.49539	0.524451	0.004941
287	C	0.450139	0.508658	0.977547
288	C	0.42075	0.535009	0.982724
289	H	0.388314	0.524232	0.962763
290	C	0.526281	0.499584	0.667085
291	C	0.591066	0.453033	0.657623
292	N	0.569193	0.513599	0.693497
293	C	0.601372	0.492173	0.690748
294	C	0.54568	0.436707	0.963583
295	C	0.512833	0.459441	0.967887
296	C	0.467626	0.44376	0.94077
297	C	0.436364	0.467998	0.945711
298	H	0.457256	0.414804	0.91713
299	H	0.403978	0.456251	0.9255
300	H	0.535933	0.407611	0.94023
301	C	0.504088	0.635124	0.739866
302	H	0.512618	0.672387	0.723976
303	H	0.541014	0.640769	0.754533
304	H	0.475649	0.62615	0.766824
305	C	0.645865	0.511836	0.72301
306	H	0.645301	0.540586	0.746183
307	H	0.683835	0.531388	0.705408
308	H	0.642967	0.478707	0.742435
309	C	0.625726	0.428771	0.653108
310	H	0.618967	0.403995	0.682578
311	H	0.667314	0.460623	0.653321
312	C	0.406158	0.6062	0.015932
313	H	0.373389	0.590184	0.99186
314	H	0.433636	0.647269	0.006021
315	C	0.422535	0.859164	0.013842
316	C	0.408075	0.890758	0.706831
317	N	0.434888	0.944418	0.701223
318	C	0.475011	0.970832	0.004966
319	C	0.4908	0.941379	0.977563
320	C	0.464447	0.885638	0.982738
321	H	0.475215	0.863978	0.96277
322	C	0.499878	0.026593	0.667112
323	C	0.54642	0.137929	0.657646
324	N	0.48587	0.05549	0.693527
325	C	0.507294	0.109094	0.690781
326	C	0.56274	0.108867	0.963599
327	C	0.540011	0.053287	0.967907
328	C	0.555686	0.023762	0.94078
329	C	0.53145	0.968262	0.945721
330	H	0.584633	0.042349	0.917133
331	H	0.54319	0.947624	0.9255
332	H	0.591828	0.128217	0.94024
333	C	0.364353	0.868859	0.739899
334	H	0.327088	0.840129	0.724016
335	H	0.358716	0.900142	0.754573
336	H	0.373331	0.84939	0.766854
337	C	0.487635	0.133923	0.723047
338	H	0.458896	0.104612	0.746227
339	H	0.468077	0.15234	0.705455
340	H	0.520769	0.164156	0.742468
341	C	0.570674	0.196848	0.653128
342	H	0.595461	0.214872	0.682592
343	H	0.538824	0.206583	0.653351
344	C	0.393253	0.799851	0.01594
345	H	0.409264	0.7831	0.991863
346	H	0.352187	0.786274	0.006028
347	C	0.140272	0.563237	0.013813
348	C	0.108676	0.517187	0.706807
349	N	0.055017	0.490343	0.7012
350	C	0.028602	0.504051	0.004939
351	C	0.058059	0.54929	0.977533
352	C	0.113802	0.578676	0.982704
353	H	0.135463	0.611101	0.962733
354	C	0.972842	0.473162	0.667089
355	C	0.861501	0.408375	0.657629
356	N	0.943944	0.430262	0.693507
357	C	0.890338	0.398084	0.690761
358	C	0.890567	0.453753	0.963576
359	C	0.946147	0.4866	0.967881
360	C	0.975676	0.531794	0.94075
361	C	0.031176	0.563054	0.945687
362	H	0.957089	0.542157	0.917104
363	H	0.051818	0.595431	0.925466
364	H	0.871217	0.463491	0.940217
365	C	0.130575	0.495367	0.739879
366	H	0.159298	0.486822	0.723993
367	H	0.099291	0.458451	0.754556
368	H	0.150044	0.523814	0.766827
369	C	0.865506	0.353602	0.723034
370	H	0.894817	0.354174	0.746213
371	H	0.847086	0.315624	0.705445
372	H	0.835276	0.35651	0.742455
373	C	0.802582	0.373717	0.653111
374	H	0.784563	0.380486	0.682578
375	H	0.792844	0.332129	0.653338
376	C	0.199582	0.593263	0.015912
377	H	0.216337	0.626022	0.99183
378	H	0.213162	0.565775	0.006007
