data_C216H126N18_2018-02-15_10:41:43
#******************************************
#
# CIF file created by Zeo++
# Zeo++ is an open source package to
# analyze microporous materials
#
#*******************************************

_cell_length_a		29.9797   
_cell_length_b		29.9796   
_cell_length_c		29.8312   
_cell_angle_alpha		90   
_cell_angle_beta		90   
_cell_angle_gamma		120   

_symmetry_space_group_name_H-M		'P1'
_symmetry_Int_Tables_number		1
_symmetry_cell_setting		Monoclinic

loop_
_symmetry_equiv_pos_as_xyz
'+x,+y,+z'

loop_
_atom_site_label
_atom_site_type_symbol
_atom_site_fract_x
_atom_site_fract_y
_atom_site_fract_z
1	C	0.031788	0.516602	0.050203
2	N	0.029415	0.515415	0.303633
3	C	0.03125	0.516332	0.132526
4	C	0.031788	0.516602	0.383538
5	N	0.029415	0.515415	0.636967
6	C	0.03125	0.516332	0.465858
7	C	0.031788	0.516602	0.71687
8	N	0.029415	0.515415	0.9703
9	C	0.03125	0.516332	0.799194
10	C	0.058011	0.529712	0.008384
11	C	0.058318	0.529867	0.09176
12	H	0.050896	0.526157	0.162239
13	C	0.058011	0.529712	0.341716
14	C	0.058318	0.529867	0.425095
15	H	0.050896	0.526157	0.495572
16	C	0.058011	0.529712	0.675052
17	C	0.058318	0.529867	0.758427
18	H	0.050896	0.526157	0.828904
19	C	0.281256	0.641336	0.001512
20	C	0.311019	0.616382	0.001462
21	C	0.365737	0.641336	0.001505
22	C	0.390692	0.696052	0.001465
23	C	0.365738	0.725817	0.001515
24	C	0.311019	0.696052	0.001485
25	C	0.394168	0.6129	0.001767
26	C	0.36916	0.55791	0.002149
27	C	0.396063	0.530548	0.003239
28	C	0.450202	0.556863	0.003803
29	C	0.476518	0.611001	0.003241
30	C	0.449159	0.637908	0.002146
31	C	0.224389	0.612904	0.00177
32	C	0.194406	0.557914	0.002149
33	C	0.14014	0.530552	0.003237
34	C	0.112318	0.55687	0.003804
35	C	0.140144	0.611012	0.003233
36	C	0.194408	0.637912	0.002142
37	C	0.39417	0.782683	0.00178
38	C	0.369161	0.812664	0.002146
39	C	0.396064	0.866929	0.003224
40	C	0.450205	0.894757	0.003789
41	C	0.476521	0.866933	0.003237
42	C	0.449161	0.812667	0.002152
43	H	0.121058	0.491127	0.004376
44	H	0.210915	0.535455	0.002206
45	H	0.121061	0.631357	0.004343
46	H	0.210917	0.676879	0.002149
47	H	0.330194	0.796156	0.002169
48	H	0.375722	0.886014	0.004348
49	H	0.471618	0.796156	0.002209
50	H	0.515946	0.886014	0.004373
51	H	0.471618	0.676875	0.002172
52	H	0.515946	0.631345	0.004356
53	H	0.375719	0.491119	0.004349
54	H	0.330192	0.535451	0.002166
55	H	0.291712	0.577769	0.001284
56	H	0.291714	0.71536	0.001354
57	H	0.429305	0.71536	0.001297
58	C	0.72723	0.364324	0.001509
59	C	0.697469	0.389279	0.001458
60	C	0.64275	0.364325	0.001502
61	C	0.617796	0.309606	0.001465
62	C	0.642751	0.279843	0.001512
63	C	0.697466	0.309606	0.001482
64	C	0.614317	0.392757	0.00176
65	C	0.639325	0.44775	0.002146
66	C	0.612422	0.475112	0.003228
67	C	0.558285	0.448794	0.003817
68	C	0.531967	0.394656	0.003241
69	C	0.559329	0.367751	0.002139
70	C	0.784099	0.392757	0.001767
71	C	0.814082	0.447746	0.002149
72	C	0.868347	0.475108	0.003226
73	C	0.896167	0.448786	0.003801
74	C	0.868344	0.394648	0.003223
75	C	0.814079	0.367747	0.002142
76	C	0.614318	0.222976	0.001773
77	C	0.639328	0.192995	0.002135
78	C	0.612422	0.13873	0.003239
79	C	0.558283	0.110906	0.003803
80	C	0.531966	0.138727	0.00322
81	C	0.559326	0.192993	0.002149
82	H	0.887429	0.514533	0.004383
83	H	0.797572	0.470205	0.002209
84	H	0.887426	0.374306	0.004349
85	H	0.797571	0.32878	0.002152
86	H	0.678293	0.209504	0.002169
87	H	0.632767	0.119646	0.004355
88	H	0.53687	0.209502	0.002199
89	H	0.492542	0.119645	0.004372
90	H	0.53687	0.328783	0.002162
91	H	0.492539	0.374311	0.004359
92	H	0.632768	0.514537	0.004358
93	H	0.678292	0.470205	0.002166
94	H	0.716775	0.427891	0.001277
95	H	0.716773	0.2903	0.001348
96	H	0.579183	0.2903	0.001297
97	C	0.531129	0.475948	0.008391
98	C	0.518015	0.489059	0.050209
99	C	0.49047	0.516602	0.050206
100	C	0.47736	0.529712	0.008385
101	N	0.491661	0.515415	0.303636
102	N	0.516833	0.490245	0.303639
103	C	0.477203	0.52987	0.091761
104	C	0.490734	0.516336	0.132528
105	C	0.517742	0.489328	0.132531
106	C	0.531279	0.475794	0.091767
107	H	0.457524	0.549544	0.092977
108	H	0.48091	0.526161	0.16224
109	H	0.527565	0.479507	0.162245
110	H	0.550956	0.456116	0.092987
111	C	0.531126	0.056598	0.008382
112	C	0.518016	0.030372	0.0502
113	C	0.49047	0.975283	0.050197
114	C	0.47736	0.949065	0.008376
115	N	0.491657	0.977663	0.303627
116	N	0.516829	0.028005	0.30363
117	C	0.477204	0.948749	0.091752
118	C	0.490736	0.975814	0.132519
119	C	0.517745	0.02983	0.132522
120	C	0.53128	0.056901	0.091758
121	H	0.457526	0.909393	0.092967
122	H	0.480911	0.956163	0.16223
123	H	0.527567	0.049474	0.162236
124	H	0.550954	0.096255	0.092977
125	C	0.950475	0.475948	0.008383
126	C	0.976697	0.489059	0.050202
127	N	0.979072	0.490245	0.303633
128	C	0.977234	0.489324	0.132525
129	C	0.950166	0.47579	0.091759
130	H	0.097673	0.549544	0.092978
131	H	0.957586	0.479503	0.162237
132	H	0.910811	0.456112	0.092976
133	C	0.281256	0.641336	0.334844
134	C	0.311019	0.616382	0.334794
135	C	0.365737	0.641336	0.334837
136	C	0.390692	0.696052	0.3348
137	C	0.365738	0.725817	0.334848
138	C	0.311019	0.696052	0.33482
139	C	0.394168	0.6129	0.335101
140	C	0.36916	0.55791	0.335481
141	C	0.396063	0.530548	0.33657
142	C	0.450202	0.556863	0.337137
143	C	0.476518	0.611001	0.336574
144	C	0.449159	0.637908	0.335478
145	C	0.224389	0.612904	0.335103
146	C	0.194406	0.557914	0.335484
147	C	0.14014	0.530552	0.33657
148	C	0.112318	0.55687	0.337137
149	C	0.140144	0.611012	0.336567
150	C	0.194408	0.637912	0.335478
151	C	0.39417	0.782683	0.335113
152	C	0.369161	0.812664	0.335481
153	C	0.396064	0.866929	0.336557
154	C	0.450205	0.894757	0.337124
155	C	0.476521	0.866933	0.33657
156	C	0.449161	0.812667	0.335488
157	H	0.121058	0.491127	0.33771
158	H	0.210915	0.535455	0.335538
159	H	0.121061	0.631357	0.337677
160	H	0.210917	0.676879	0.335481
161	H	0.330194	0.796156	0.335501
162	H	0.375722	0.886014	0.33768
163	H	0.471618	0.796156	0.335545
164	H	0.515946	0.886014	0.337707
165	H	0.471618	0.676875	0.335508
166	H	0.515946	0.631345	0.33769
167	H	0.375719	0.491119	0.337683
168	H	0.330192	0.535451	0.335498
169	H	0.291712	0.577769	0.334619
170	H	0.291714	0.71536	0.334689
171	H	0.429305	0.71536	0.334631
172	C	0.72723	0.364324	0.334842
173	C	0.697469	0.389279	0.33479
174	C	0.64275	0.364325	0.334834
175	C	0.617796	0.309606	0.334797
176	C	0.642751	0.279843	0.334844
177	C	0.697466	0.309606	0.334816
178	C	0.614317	0.392757	0.335093
179	C	0.639325	0.44775	0.335478
180	C	0.612422	0.475112	0.33656
181	C	0.558285	0.448794	0.33715
182	C	0.531967	0.394656	0.336574
183	C	0.559329	0.367751	0.335471
184	C	0.784099	0.392757	0.335101
185	C	0.814082	0.447746	0.335481
186	C	0.868347	0.475108	0.33656
187	C	0.896167	0.448786	0.337134
188	C	0.868344	0.394648	0.336557
189	C	0.814079	0.367747	0.335474
190	C	0.614318	0.222976	0.335105
191	C	0.639328	0.192995	0.335468
192	C	0.612422	0.13873	0.336574
193	C	0.558283	0.110906	0.337137
194	C	0.531966	0.138727	0.336554
195	C	0.559326	0.192993	0.335481
196	H	0.887429	0.514533	0.337717
197	H	0.797572	0.470205	0.335541
198	H	0.887426	0.374306	0.337683
199	H	0.797571	0.32878	0.335484
200	H	0.678293	0.209504	0.335501
201	H	0.632767	0.119646	0.33769
202	H	0.53687	0.209502	0.335535
203	H	0.492542	0.119645	0.337707
204	H	0.53687	0.328783	0.335494
205	H	0.492539	0.374311	0.337693
206	H	0.632768	0.514537	0.33769
207	H	0.678292	0.470205	0.335498
208	H	0.716775	0.427891	0.334612
209	H	0.716773	0.2903	0.334681
210	H	0.579183	0.2903	0.334631
211	C	0.531129	0.475948	0.341726
212	C	0.518015	0.489059	0.383541
213	C	0.49047	0.516602	0.383538
214	C	0.47736	0.529712	0.341719
215	N	0.491661	0.515415	0.636971
216	N	0.516833	0.490245	0.636971
217	C	0.477203	0.52987	0.425095
218	C	0.490734	0.516336	0.465861
219	C	0.517742	0.489328	0.465865
220	C	0.531279	0.475794	0.425102
221	H	0.457524	0.549544	0.426309
222	H	0.48091	0.526161	0.495572
223	H	0.527565	0.479507	0.495579
224	H	0.550956	0.456116	0.426319
225	C	0.531126	0.056598	0.341716
226	C	0.518016	0.030372	0.383535
227	C	0.49047	0.975283	0.383531
228	C	0.47736	0.949065	0.341709
229	N	0.491657	0.977663	0.636961
230	N	0.516829	0.028005	0.636964
231	C	0.477204	0.948749	0.425085
232	C	0.490736	0.975814	0.465851
233	C	0.517745	0.02983	0.465855
234	C	0.53128	0.056901	0.425092
235	H	0.457526	0.909393	0.426299
236	H	0.480911	0.956163	0.495565
237	H	0.527567	0.049474	0.495568
238	H	0.550954	0.096255	0.426312
239	C	0.950475	0.475948	0.341716
240	C	0.976697	0.489059	0.383535
241	N	0.979072	0.490245	0.636967
242	C	0.977234	0.489324	0.465858
243	C	0.950166	0.47579	0.425092
244	H	0.097673	0.549544	0.426312
245	H	0.957586	0.479503	0.495572
246	H	0.910811	0.456112	0.426309
247	C	0.281256	0.641336	0.668176
248	C	0.311019	0.616382	0.668126
249	C	0.365737	0.641336	0.66817
250	C	0.390692	0.696052	0.668133
251	C	0.365738	0.725817	0.66818
252	C	0.311019	0.696052	0.668153
253	C	0.394168	0.6129	0.668434
254	C	0.36916	0.55791	0.668817
255	C	0.396063	0.530548	0.669906
256	C	0.450202	0.556863	0.670469
257	C	0.476518	0.611001	0.669906
258	C	0.449159	0.637908	0.668813
259	C	0.224389	0.612904	0.668438
260	C	0.194406	0.557914	0.668817
261	C	0.14014	0.530552	0.669903
262	C	0.112318	0.55687	0.670469
263	C	0.140144	0.611012	0.669899
264	C	0.194408	0.637912	0.66881
265	C	0.39417	0.782683	0.668448
266	C	0.369161	0.812664	0.668813
267	C	0.396064	0.866929	0.669889
268	C	0.450205	0.894757	0.670456
269	C	0.476521	0.866933	0.669903
270	C	0.449161	0.812667	0.66882
271	H	0.121058	0.491127	0.671042
272	H	0.210915	0.535455	0.66887
273	H	0.121061	0.631357	0.671009
274	H	0.210917	0.676879	0.668813
275	H	0.330194	0.796156	0.668837
276	H	0.375722	0.886014	0.671016
277	H	0.471618	0.796156	0.668877
278	H	0.515946	0.886014	0.671039
279	H	0.471618	0.676875	0.66884
280	H	0.515946	0.631345	0.671022
281	H	0.375719	0.491119	0.671016
282	H	0.330192	0.535451	0.668833
283	H	0.291712	0.577769	0.667952
284	H	0.291714	0.71536	0.668022
285	H	0.429305	0.71536	0.667965
286	C	0.72723	0.364324	0.668176
287	C	0.697469	0.389279	0.668123
288	C	0.64275	0.364325	0.668166
289	C	0.617796	0.309606	0.668129
290	C	0.642751	0.279843	0.668176
291	C	0.697466	0.309606	0.66815
292	C	0.614317	0.392757	0.668428
293	C	0.639325	0.44775	0.668813
294	C	0.612422	0.475112	0.669896
295	C	0.558285	0.448794	0.670483
296	C	0.531967	0.394656	0.669909
297	C	0.559329	0.367751	0.668807
298	C	0.784099	0.392757	0.668434
299	C	0.814082	0.447746	0.668813
300	C	0.868347	0.475108	0.669893
301	C	0.896167	0.448786	0.670469
302	C	0.868344	0.394648	0.669889
303	C	0.814079	0.367747	0.668807
304	C	0.614318	0.222976	0.668438
305	C	0.639328	0.192995	0.668803
306	C	0.612422	0.13873	0.669906
307	C	0.558283	0.110906	0.670469
308	C	0.531966	0.138727	0.669886
309	C	0.559326	0.192993	0.668813
310	H	0.887429	0.514533	0.671049
311	H	0.797572	0.470205	0.668877
312	H	0.887426	0.374306	0.671016
313	H	0.797571	0.32878	0.66882
314	H	0.678293	0.209504	0.668837
315	H	0.632767	0.119646	0.671022
316	H	0.53687	0.209502	0.668867
317	H	0.492542	0.119645	0.671039
318	H	0.53687	0.328783	0.66883
319	H	0.492539	0.374311	0.671026
320	H	0.632768	0.514537	0.671026
321	H	0.678292	0.470205	0.66883
322	H	0.716775	0.427891	0.667945
323	H	0.716773	0.2903	0.668015
324	H	0.579183	0.2903	0.667965
325	C	0.531129	0.475948	0.675058
326	C	0.518015	0.489059	0.716877
327	C	0.49047	0.516602	0.716874
328	C	0.47736	0.529712	0.675052
329	N	0.491661	0.515415	0.970303
330	N	0.516833	0.490245	0.970306
331	C	0.477203	0.52987	0.758427
332	C	0.490734	0.516336	0.799194
333	C	0.517742	0.489328	0.799197
334	C	0.531279	0.475794	0.758434
335	H	0.457524	0.549544	0.759644
336	H	0.48091	0.526161	0.828907
337	H	0.527565	0.479507	0.828911
338	H	0.550956	0.456116	0.759654
339	C	0.531126	0.056598	0.675048
340	C	0.518016	0.030372	0.716867
341	C	0.49047	0.975283	0.716864
342	C	0.47736	0.949065	0.675042
343	N	0.491657	0.977663	0.970293
344	N	0.516829	0.028005	0.970296
345	C	0.477204	0.948749	0.758417
346	C	0.490736	0.975814	0.799187
347	C	0.517745	0.02983	0.79919
348	C	0.53128	0.056901	0.758424
349	H	0.457526	0.909393	0.759634
350	H	0.480911	0.956163	0.828897
351	H	0.527567	0.049474	0.828904
352	H	0.550954	0.096255	0.759644
353	C	0.950475	0.475948	0.675048
354	C	0.976697	0.489059	0.71687
355	N	0.979072	0.490245	0.9703
356	C	0.977234	0.489324	0.79919
357	C	0.950166	0.47579	0.758424
358	H	0.097673	0.549544	0.759644
359	H	0.957586	0.479503	0.828904
360	H	0.910811	0.456112	0.759641
